<?xml version="1.0" encoding="UTF-8"?>

<!-- generated on 2026-03-11 14:08:51.370877 by randomTrips.py UNKNOWN
<configuration>
    <net-file value="/Users/admin/V2X_Project/Scenario/osm.net.xml.gz"/>
    <output-trip-file value="/Users/admin/V2X_Project/Scenario/background_480.trips.xml"/>
    <route-file value="/Users/admin/V2X_Project/Scenario/background_480.routes.xml"/>
    <validate value="True"/>
    <period value="7.5"/>
</configuration>
-->

<!-- generated on 2026-03-11 14:08:51 by Eclipse SUMO duarouter Version 1.20.0
<configuration xmlns:xsi="http://www.w3.org/2001/XMLSchema-instance" xsi:noNamespaceSchemaLocation="http://sumo.dlr.de/xsd/duarouterConfiguration.xsd">

    <input>
        <net-file value="/Users/admin/V2X_Project/Scenario/osm.net.xml.gz"/>
        <route-files value="/Users/admin/V2X_Project/Scenario/background_480.trips.xml"/>
    </input>

    <output>
        <output-file value="/Users/admin/V2X_Project/Scenario/background_480.routes.xml"/>
        <alternatives-output value="NUL"/>
    </output>

    <time>
        <begin value="0.0"/>
        <end value="3600.0"/>
    </time>

    <report>
        <no-warnings value="true"/>
        <ignore-errors value="true"/>
        <no-step-log value="true"/>
    </report>

</configuration>
-->

<routes xmlns:xsi="http://www.w3.org/2001/XMLSchema-instance" xsi:noNamespaceSchemaLocation="http://sumo.dlr.de/xsd/routes_file.xsd">
    <vehicle id="0" depart="0.00">
        <route edges="27222898#0 27222898#1 27222898#2 27222898#3 25101222#1 25101222#2 25101222#3 -101904575#3 -101904575#2"/>
    </vehicle>
    <vehicle id="1" depart="7.50">
        <route edges="1274037341#0 1274037341#1 179750980#0 101904575#2 101904575#3 101904575#4"/>
    </vehicle>
    <vehicle id="2" depart="15.00">
        <route edges="34593465 24572451#2 24572451#3 27060958 1274037341#0 1274037341#1 179750980#0 101904582#0 101904582#2 27222898#0 27222898#1 27222898#2"/>
    </vehicle>
    <vehicle id="3" depart="22.50">
        <route edges="70195473#0 -70195473#0 74271174#2 74271174#3 74271174#4 858712306#2 858712306#3 858712306#4 1373207274#0 -1373207273#2"/>
    </vehicle>
    <vehicle id="4" depart="30.00">
        <route edges="23613955#0 244976788#1 244976788#2 244976788#3 25101222#3 -101904575#3"/>
    </vehicle>
    <vehicle id="5" depart="37.50">
        <route edges="101904581#1 101904581#2 101904581#3 101904581#4 1274037341#0 1274037341#1 179750980#0 101904582#0 244976788#2 244976788#3 244976788#4"/>
    </vehicle>
    <vehicle id="6" depart="45.00">
        <route edges="-101904575#4 -101904575#3 -101904575#2 -101904575#1 101904575#1"/>
    </vehicle>
    <vehicle id="7" depart="52.50">
        <route edges="27222898#1 27222898#2 27222898#3 25101222#1 25101222#2 25101222#3 101904575#4 101904575#5 -1371162374#1 -1371162376#2 -36865538#1 30848823#0 101904581#2 34593465 24572451#2"/>
    </vehicle>
    <vehicle id="8" depart="60.00">
        <route edges="101904581#1 101904581#2 101904581#3 101904581#4 1274037341#0 1274037341#1 409634167#3 409634147#1 204817300#0 244976788#5 24573467#2"/>
    </vehicle>
    <vehicle id="10" depart="75.00">
        <route edges="409634167#5 179750964#2 409634147#1 204817300#0 204817300#1 204817300#2 74271174#2 74271174#3 74271174#4 858712306#2 858712306#3 30424888#0"/>
    </vehicle>
    <vehicle id="11" depart="82.50">
        <route edges="179750964#2 409634147#1 101904575#5 -1371162374#1 -1371162376#2 -36865538#1"/>
    </vehicle>
    <vehicle id="12" depart="90.00">
        <route edges="858712306#0 858712306#1 858712306#2 858712306#3 858712306#4 1373207274#0 -1373207273#2 -1373207273#1 -1371162374#1 -1371162376#2 1371162376#1"/>
    </vehicle>
    <vehicle id="13" depart="97.50">
        <route edges="-27222898#2 -27222898#1 -27222898#0"/>
    </vehicle>
    <vehicle id="15" depart="112.50">
        <route edges="409634167#5 179750964#2 409634147#1 204817300#0 204817300#1 204817300#2 70195473#0 70195473#1 -31185326#1 -31185326#0 31185326#0"/>
    </vehicle>
    <vehicle id="16" depart="120.00">
        <route edges="24573467#1 24573467#2 -101904575#5 204817300#0 204817300#1 204817300#2 74271174#2 74271174#3 74271174#4 858712306#2"/>
    </vehicle>
    <vehicle id="17" depart="127.50">
        <route edges="204817300#0 244976788#5 24573467#2 -1371162374#1 -1371162376#2 -36865538#1 30848823#0 101904581#2 101904581#3 34593466 24572451#3"/>
    </vehicle>
    <vehicle id="20" depart="150.00">
        <route edges="31185326#0 409895595 -70195473#0 74271174#2 24573467#0 24573467#1 24573467#2 -101904575#5"/>
    </vehicle>
    <vehicle id="21" depart="157.50">
        <route edges="101904581#2 101904581#3 101904581#4 1274037341#0 1274037341#1 179750980#0 101904582#0"/>
    </vehicle>
    <vehicle id="22" depart="165.00">
        <route edges="-27222898#1 -27222898#0 27222898#0 27222898#1 27222898#2 27222898#3 25101222#1 25101222#2 25101222#3 101904575#4 101904575#5"/>
    </vehicle>
    <vehicle id="23" depart="172.50">
        <route edges="-27222898#3 -27222898#2 27222898#2 27222898#3 25101222#1 25101222#2 25101222#3 101904575#4 101904575#5 -1371162374#1 -1371162376#2 -36865538#1 30848823#0 101904581#2 101904581#3 101904581#4"/>
    </vehicle>
    <vehicle id="24" depart="180.00">
        <route edges="27222898#0 27222898#1 -34593464 244976788#3 244976788#4 244976788#5 244976788#6 1373207274#0"/>
    </vehicle>
    <vehicle id="25" depart="187.50">
        <route edges="179750980#0 101904575#2"/>
    </vehicle>
    <vehicle id="26" depart="195.00">
        <route edges="101904582#2 27222898#0 27222898#1 -34593464 244976788#3 244976788#4 204817300#1 204817300#2 74271174#2 74271174#3 74271174#4"/>
    </vehicle>
    <vehicle id="28" depart="210.00">
        <route edges="101904575#1 101904575#2 101904575#3 101904575#4 204817300#0 204817300#1 204817300#2 70195473#0 70195473#1 -31185326#1 -31185326#0 31185326#0"/>
    </vehicle>
    <vehicle id="29" depart="217.50">
        <route edges="101904575#0 101904575#1 101904575#2 101904575#3 101904575#4 101904575#5 -1371162374#1 -1371162376#2 179750964#2"/>
    </vehicle>
    <vehicle id="30" depart="225.00">
        <route edges="858712306#3 858712306#4 1373207274#0 -1373207273#2 -1373207273#1 -1371162374#1 -1371162376#2 -36865538#1 30848823#0 101904581#2 101904581#3 34593466 24572451#3 27060958"/>
    </vehicle>
    <vehicle id="31" depart="232.50">
        <route edges="24978568#2 409634167#1 179750980#0 101904582#0 101904582#2 27222898#0 27222898#1 27222898#2 27222898#3"/>
    </vehicle>
    <vehicle id="33" depart="247.50">
        <route edges="101904581#2 101904581#3 101904581#4 1274037341#0 1274037341#1 179750980#0 101904575#2 101904575#3 -101904575#3"/>
    </vehicle>
    <vehicle id="34" depart="255.00">
        <route edges="1373207273#2 -1373207273#2 -1373207273#1 -1371162374#1 -1371162376#2 -36865538#1 30848823#0 101904581#2 101904581#3"/>
    </vehicle>
    <vehicle id="35" depart="262.50">
        <route edges="101904581#0 101904581#1 101904581#2 101904581#3 101904581#4 1274037341#0 1274037341#1 858712304#0"/>
    </vehicle>
    <vehicle id="36" depart="270.00">
        <route edges="61010972#0 74271174#2 24573467#0 24573467#1 24573467#2 -1371162374#1 -1371162376#2 -36865538#1 30848823#0 101904581#2 101904581#3 101904581#4 1274037341#0 1274037341#1"/>
    </vehicle>
    <vehicle id="37" depart="277.50">
        <route edges="27222898#2 27222898#3 25101222#1 25101222#2 25101222#3 409634137 179750964#5"/>
    </vehicle>
    <vehicle id="38" depart="285.00">
        <route edges="74271174#1 74271174#2 24573467#0 24573467#1 24573467#2 -1371162374#1 -1371162376#2 179750964#2 179750964#4 179750964#5 179750980#0 -101904575#1 23613955#0"/>
    </vehicle>
    <vehicle id="40" depart="300.00">
        <route edges="24978568#2 409634167#1 409634167#3 409634167#5 -36865538#1 30848823#0 101904581#2"/>
    </vehicle>
    <vehicle id="41" depart="307.50">
        <route edges="25101222#0 25101222#1 25101222#2 244976788#4 204817300#1 204817300#2 70195473#0 70195473#1"/>
    </vehicle>
    <vehicle id="42" depart="315.00">
        <route edges="204817300#2 74271174#2 24573467#0 24573467#1 24573467#2 -101904575#5 -101904575#4 -101904575#3 101904575#3"/>
    </vehicle>
    <vehicle id="43" depart="322.50">
        <route edges="858712306#4 1373207274#0 -1373207273#2 -1373207273#1 -101904575#5 -101904575#4 -101904575#3 27222853 244976788#3 244976788#4"/>
    </vehicle>
    <vehicle id="44" depart="330.00">
        <route edges="-27222898#2 -34593464 244976788#3 244976788#4 244976788#5 24573467#2 -101904575#5"/>
    </vehicle>
    <vehicle id="45" depart="337.50">
        <route edges="-31185326#0 74271174#1 74271174#2 24573467#0 30424888#1 30424888#2 25101222#2"/>
    </vehicle>
    <vehicle id="46" depart="345.00">
        <route edges="409634167#3 409634147#1 204817300#0 204817300#1"/>
    </vehicle>
    <vehicle id="47" depart="352.50">
        <route edges="-1373207273#1 -1371162374#1 -1371162376#2 179750964#2 179750964#4"/>
    </vehicle>
    <vehicle id="48" depart="360.00">
        <route edges="858712306#4 1373207274#0 -1373207273#2 -1373207273#1 -101904575#5 204817300#0 244976788#5 244976788#6"/>
    </vehicle>
    <vehicle id="50" depart="375.00">
        <route edges="-101904575#2 101904575#2 101904575#3 101904575#4 101904575#5 -1371162374#1 -1371162376#2 -36865538#1 30848823#0"/>
    </vehicle>
    <vehicle id="52" depart="390.00">
        <route edges="101904582#2 27222898#0 27222898#1 27222898#2 27222898#3 25101222#1 25101222#2 25101222#3 101904575#4 101904575#5 -1371162374#1 -1371162376#2 -36865538#1 30848823#0 101904581#2 101904581#3 34593466 24572451#3 27060958"/>
    </vehicle>
    <vehicle id="54" depart="405.00">
        <route edges="244976788#3 25101222#3 409634137 179750964#5 858712304#0 858712304#2"/>
    </vehicle>
    <vehicle id="55" depart="412.50">
        <route edges="61010972#0 74271174#2 24573467#0 24573467#1 24573467#2 -1371162374#1 -1371162376#2 -36865538#1 30848823#0 101904581#2"/>
    </vehicle>
    <vehicle id="56" depart="420.00">
        <route edges="24572451#2 24572451#3 27060958 1274037341#0 1274037341#1 409634167#3 409634147#1 204817300#0 204817300#1 204817300#2 70195473#0 -70195473#0"/>
    </vehicle>
    <vehicle id="58" depart="435.00">
        <route edges="1371162376#1 -1371162376#2 -36865538#1 30848823#0 101904581#2 101904581#3 34593466 24572451#3 27060958"/>
    </vehicle>
    <vehicle id="59" depart="442.50">
        <route edges="25101222#3 101904575#4 101904575#5 -1371162374#1 -1371162376#2 -36865538#1"/>
    </vehicle>
    <vehicle id="61" depart="457.50">
        <route edges="409634167#0 409634167#1 409634167#3 409634147#1 204817300#0 244976788#5 244976788#6"/>
    </vehicle>
    <vehicle id="62" depart="465.00">
        <route edges="-101904575#1 101904575#1 101904575#2 101904575#3 101904575#4 101904575#5 -1371162374#1 1371162374#1"/>
    </vehicle>
    <vehicle id="63" depart="472.50">
        <route edges="-101904575#3 27222853 244976788#3 244976788#4 204817300#1 204817300#2 74271174#2 74271174#3"/>
    </vehicle>
    <vehicle id="64" depart="480.00">
        <route edges="61010978 -70195473#0 74271174#2 74271174#3 45313914#0"/>
    </vehicle>
    <vehicle id="65" depart="487.50">
        <route edges="1373207273#1 1373207273#2 -1373207273#2 -1373207273#1 -1371162374#1"/>
    </vehicle>
    <vehicle id="66" depart="495.00">
        <route edges="61010972#0 74271174#2 24573467#0 24573467#1 24573467#2 -1371162374#1 -1371162376#2 179750964#2 179750964#4 179750964#5 858712304#0 858712304#2"/>
    </vehicle>
    <vehicle id="67" depart="502.50">
        <route edges="-27222898#1 -27222898#0 27222898#0 27222898#1 27222898#2 27222898#3 25101222#1 25101222#2 25101222#3 -101904575#3 -101904575#2 -101904575#1 23613955#0 244976788#1"/>
    </vehicle>
    <vehicle id="68" depart="510.00">
        <route edges="-1373207273#1 -1371162374#1 -1371162376#2 -36865538#1 30848823#0 101904581#2 34593465"/>
    </vehicle>
    <vehicle id="69" depart="517.50">
        <route edges="409634147#1 204817300#0 204817300#1 204817300#2 70195473#0 70195473#1 -31185326#1 -31185326#0"/>
    </vehicle>
    <vehicle id="70" depart="525.00">
        <route edges="244976788#5 24573467#2 -1371162374#1 -1371162376#2 -36865538#1 30848823#0 101904581#2 101904581#3 34593466 24572451#3"/>
    </vehicle>
    <vehicle id="72" depart="540.00">
        <route edges="23613955#0 244976788#1 244976788#2 244976788#3 25101222#3 -101904575#3 -101904575#2 101904575#2"/>
    </vehicle>
    <vehicle id="73" depart="547.50">
        <route edges="24573467#2 -101904575#5 204817300#0 204817300#1 204817300#2 70195473#0 70195473#1 -31185326#1 -31185326#0 31185326#0"/>
    </vehicle>
    <vehicle id="74" depart="555.00">
        <route edges="101904575#5 -1371162374#1 -1371162376#2 -36865538#1 30848823#0 101904581#2 101904581#3 101904581#4 1274037341#0 1274037341#1"/>
    </vehicle>
    <vehicle id="75" depart="562.50">
        <route edges="858712306#4 1373207274#0 -1373207273#2 -1373207273#1 -101904575#5 -101904575#4 -101904575#3 27222853"/>
    </vehicle>
    <vehicle id="76" depart="570.00">
        <route edges="244976788#1 244976788#2 244976788#3 244976788#4 244976788#5"/>
    </vehicle>
    <vehicle id="77" depart="577.50">
        <route edges="-31185326#1 -31185326#0 74271174#1 74271174#2 24573467#0 24573467#1 24573467#2 -101904575#5 -101904575#4 101904575#4"/>
    </vehicle>
    <vehicle id="78" depart="585.00">
        <route edges="179750964#0 179750964#2 409634147#1 204817300#0 244976788#5 24573467#2"/>
    </vehicle>
    <vehicle id="79" depart="592.50">
        <route edges="101904581#2 101904581#3 101904581#4 1274037341#0 1274037341#1 179750980#0 101904575#2 101904575#3"/>
    </vehicle>
    <vehicle id="80" depart="600.00">
        <route edges="-1373207273#2 -1373207273#1 -101904575#5 -101904575#4 -101904575#3 27222853 244976788#3 25101222#3"/>
    </vehicle>
    <vehicle id="81" depart="607.50">
        <route edges="101904581#2 101904581#3 101904581#4 1274037341#0 1274037341#1 409634167#3 409634147#1 204817300#0 204817300#1 204817300#2 70195473#0 70195473#1 -31185326#1 -31185326#0 74271174#1"/>
    </vehicle>
    <vehicle id="82" depart="615.00">
        <route edges="553792778#1 24572451#1 24572451#2 24572451#3 27060958 1274037341#0 1274037341#1 409634167#3 409634167#5 1371162376#1 1371162374#1 1373207273#1 1373207273#2 -1373207273#2 -1373207273#1"/>
    </vehicle>
    <vehicle id="83" depart="622.50">
        <route edges="101904581#3 101904581#4 1274037341#0 1274037341#1 179750980#0 101904582#0 101904582#2 27222898#0 27222898#1"/>
    </vehicle>
    <vehicle id="84" depart="630.00">
        <route edges="101904581#0 101904581#1 101904581#2 101904581#3 101904581#4 1274037341#0 1274037341#1 409634167#3 409634147#1 204817300#0 204817300#1 204817300#2 70195473#0 70195473#1 -31185326#1 -31185326#0"/>
    </vehicle>
    <vehicle id="85" depart="637.50">
        <route edges="74271174#3 74271174#4 858712306#2 858712306#3 30424888#0 30424888#1 204817300#2 74271174#2 24573467#0"/>
    </vehicle>
    <vehicle id="86" depart="645.00">
        <route edges="244976788#5 24573467#2 -1371162374#1 -1371162376#2 179750964#2 409634147#1"/>
    </vehicle>
    <vehicle id="87" depart="652.50">
        <route edges="409634167#5 179750964#2 179750964#4 179750964#5 179750980#0 -101904575#1 -101904575#0 101904575#0"/>
    </vehicle>
    <vehicle id="88" depart="660.00">
        <route edges="-27222898#3 -27222898#2 -34593464 244976788#3 244976788#4 204817300#1 204817300#2"/>
    </vehicle>
    <vehicle id="89" depart="667.50">
        <route edges="23613955#0 23613955#2"/>
    </vehicle>
    <vehicle id="90" depart="675.00">
        <route edges="34593464 27222898#2"/>
    </vehicle>
    <vehicle id="91" depart="682.50">
        <route edges="858712306#3 858712306#4 1373207274#0 -1373207273#2 -1373207273#1 -101904575#5 -101904575#4 -101904575#3 27222853 34593464 -27222898#1"/>
    </vehicle>
    <vehicle id="92" depart="690.00">
        <route edges="23613813#0 23613813#1 101904575#0 101904575#1 101904575#2 101904575#3 101904575#4 101904575#5 -1371162374#1 -1371162376#2 1371162376#1"/>
    </vehicle>
    <vehicle id="95" depart="712.50">
        <route edges="23613955#0 244976788#1 244976788#2 244976788#3 25101222#3 101904575#4 101904575#5 -1371162374#1 -1371162376#2 -36865538#1 30848823#0 101904581#2 101904581#3 101904581#4"/>
    </vehicle>
    <vehicle id="96" depart="720.00">
        <route edges="101904581#4 1274037341#0 1274037341#1 409634167#3 409634147#1 204817300#0 204817300#1 204817300#2 74271174#2 74271174#3"/>
    </vehicle>
    <vehicle id="98" depart="735.00">
        <route edges="24978568#0 24978568#2 409634167#1 409634167#3 409634167#5 1371162376#1 1371162374#1 -101904575#5"/>
    </vehicle>
    <vehicle id="99" depart="742.50">
        <route edges="858712306#4 1373207274#0 -1373207273#2 -1373207273#1 -101904575#5 204817300#0 204817300#1 204817300#2 74271174#2 74271174#3 45313914#0 45313914#1"/>
    </vehicle>
    <vehicle id="100" depart="750.00">
        <route edges="858712306#1 858712306#2 858712306#3 30424888#0 30424888#1 204817300#2 74271174#2 74271174#3"/>
    </vehicle>
    <vehicle id="101" depart="757.50">
        <route edges="553792778#0 553792778#1 24572451#1 24572451#2 24572451#3 27060958 1274037341#0 1274037341#1 409634167#3 409634147#1 204817300#0 204817300#1 204817300#2 70195473#0 -409895595"/>
    </vehicle>
    <vehicle id="102" depart="765.00">
        <route edges="244976788#6 1373207274#0 -1373207273#2 -1373207273#1 -101904575#5 -101904575#4 -101904575#3 101904575#3"/>
    </vehicle>
    <vehicle id="103" depart="772.50">
        <route edges="23613813#0 23613813#1 101904575#0 101904575#1 101904575#2 101904575#3 101904575#4 101904575#5 -1371162374#1"/>
    </vehicle>
    <vehicle id="104" depart="780.00">
        <route edges="204817300#0 204817300#1 204817300#2 74271174#2 74271174#3 74271174#4 858712306#2 858712306#3 858712306#4"/>
    </vehicle>
    <vehicle id="105" depart="787.50">
        <route edges="101904582#2 27222898#0 27222898#1 27222898#2 27222898#3 25101222#1 25101222#2 25101222#3 101904575#4 101904575#5 -1371162374#1 -1371162376#2 179750964#2 409634147#1"/>
    </vehicle>
    <vehicle id="106" depart="795.00">
        <route edges="244976788#3 244976788#4 204817300#1"/>
    </vehicle>
    <vehicle id="107" depart="802.50">
        <route edges="858712306#0 858712306#1 858712306#2 858712306#3 858712306#4 1373207274#0 858712397"/>
    </vehicle>
    <vehicle id="108" depart="810.00">
        <route edges="24978568#0 24978568#2 409634167#1 409634167#3 409634167#5 -36865538#1 30848823#0"/>
    </vehicle>
    <vehicle id="109" depart="817.50">
        <route edges="-70195473#0 74271174#2 24573467#0 24573467#1 24573467#2 -1371162374#1 -1371162376#2 179750964#2 179750964#4 179750964#5 179750980#0 101904582#0 101904582#2"/>
    </vehicle>
    <vehicle id="110" depart="825.00">
        <route edges="858712306#1 858712306#2 858712306#3 30424888#0 24573467#1"/>
    </vehicle>
    <vehicle id="111" depart="832.50">
        <route edges="24573467#2 -101904575#5 -101904575#4 -101904575#3 27222853 34593464"/>
    </vehicle>
    <vehicle id="112" depart="840.00">
        <route edges="-1371162376#2 179750964#2 409634147#1 204817300#0 244976788#5 24573467#2"/>
    </vehicle>
    <vehicle id="115" depart="862.50">
        <route edges="-27222898#1 -27222898#0 27222898#0 27222898#1 -34593464 244976788#3 244976788#4 204817300#1 204817300#2 70195473#0 -70195473#0"/>
    </vehicle>
    <vehicle id="116" depart="870.00">
        <route edges="25101222#1 25101222#2 25101222#3 -101904575#3 27222853 34593464 27222898#2"/>
    </vehicle>
    <vehicle id="117" depart="877.50">
        <route edges="101904581#3 101904581#4 1274037341#0 1274037341#1 179750980#0 101904582#0 101904582#2 27222898#0 27222898#1 27222898#2 27222898#3 -27222898#3"/>
    </vehicle>
    <vehicle id="119" depart="892.50">
        <route edges="25101222#1"/>
    </vehicle>
    <vehicle id="120" depart="900.00">
        <route edges="23613955#0 244976788#1 244976788#2 244976788#3 244976788#4 204817300#1 204817300#2 74271174#2 24573467#0 24573467#1"/>
    </vehicle>
    <vehicle id="121" depart="907.50">
        <route edges="24573467#0 30424888#1 204817300#2 74271174#2 74271174#3 74271174#4"/>
    </vehicle>
    <vehicle id="122" depart="915.00">
        <route edges="101904575#5 -101904575#5 204817300#0 204817300#1 30424888#2"/>
    </vehicle>
    <vehicle id="123" depart="922.50">
        <route edges="101904581#3 101904581#4 1274037341#0 1274037341#1 409634167#3 179750964#4 179750964#5"/>
    </vehicle>
    <vehicle id="124" depart="930.00">
        <route edges="30424888#0 24573467#1 24573467#2 -1371162374#1 -1371162376#2 179750964#2 179750964#4 179750964#5 179750980#0 101904582#0 101904582#2"/>
    </vehicle>
    <vehicle id="125" depart="937.50">
        <route edges="1373207273#2 -1373207273#2 -1373207273#1 -101904575#5 -101904575#4 -101904575#3 27222853 34593464"/>
    </vehicle>
    <vehicle id="126" depart="945.00">
        <route edges="-1373207273#2 -1373207273#1 -101904575#5 -101904575#4 -101904575#3 -101904575#2 -101904575#1 23613955#0"/>
    </vehicle>
    <vehicle id="127" depart="952.50">
        <route edges="858712306#4 1373207274#0 858712397"/>
    </vehicle>
    <vehicle id="128" depart="960.00">
        <route edges="-1373207273#2 -1373207273#1 -101904575#5 -101904575#4 -101904575#3 101904575#3"/>
    </vehicle>
    <vehicle id="129" depart="967.50">
        <route edges="101904582#2 27222898#0 27222898#1 -34593464 244976788#3 244976788#4 204817300#1 204817300#2 74271174#2 74271174#3 74271174#4"/>
    </vehicle>
    <vehicle id="130" depart="975.00">
        <route edges="61010978"/>
    </vehicle>
    <vehicle id="131" depart="982.50">
        <route edges="179750980#0 101904575#2 101904575#3 101904575#4 101904575#5 -1371162374#1 -1371162376#2 -36865538#1"/>
    </vehicle>
    <vehicle id="133" depart="997.50">
        <route edges="25101222#3 101904575#4 204817300#0 204817300#1 204817300#2 74271174#2 74271174#3 74271174#4 858712306#2 858712306#3 858712306#4"/>
    </vehicle>
    <vehicle id="134" depart="1005.00">
        <route edges="27222898#2 27222898#3 25101222#1 25101222#2 25101222#3 -101904575#3 -101904575#2 -101904575#1 -101904575#0"/>
    </vehicle>
    <vehicle id="136" depart="1020.00">
        <route edges="27222898#3 25101222#1 25101222#2 25101222#3 409634137 179750964#5 858712304#0"/>
    </vehicle>
    <vehicle id="137" depart="1027.50">
        <route edges="-36865538#1 36865538#0 179750964#2 179750964#4 179750964#5 179750980#0 101904582#0 101904582#2 27222898#0 27222898#1 27222898#2 27222898#3 -27222898#3"/>
    </vehicle>
    <vehicle id="138" depart="1035.00">
        <route edges="-31185326#0 74271174#1 74271174#2 24573467#0 24573467#1 24573467#2 -1371162374#1 -1371162376#2 -36865538#1 30848823#0 101904581#2 101904581#3 34593466 24572451#3"/>
    </vehicle>
    <vehicle id="140" depart="1050.00">
        <route edges="31185326#1 61010978 -70195473#0 74271174#2 24573467#0 24573467#1 24573467#2 -1371162374#1 -1371162376#2 179750964#2 179750964#4 179750964#5 179750980#0 101904575#2"/>
    </vehicle>
    <vehicle id="141" depart="1057.50">
        <route edges="27222853 244976788#3 25101222#3 101904575#4 101904575#5 -1371162374#1 -1371162376#2 -36865538#1 30848823#0 101904581#2"/>
    </vehicle>
    <vehicle id="142" depart="1065.00">
        <route edges="24572451#1 24572451#2 24572451#3 27060958 1274037341#0 1274037341#1 409634167#3 409634147#1 204817300#0 204817300#1 204817300#2 70195473#0 70195473#1 -31185326#1 -31185326#0 74271174#1"/>
    </vehicle>
    <vehicle id="143" depart="1072.50">
        <route edges="553792778#0 553792778#1 24572451#1 24572451#2 24572451#3 27060958 1274037341#0 1274037341#1 179750980#0 101904582#0 101904582#2 27222898#0 27222898#1 -27222898#1 -27222898#0"/>
    </vehicle>
    <vehicle id="144" depart="1080.00">
        <route edges="23613955#0 244976788#1 244976788#2 244976788#3 25101222#3 101904575#4 101904575#5 -1371162374#1 -1371162376#2 -36865538#1 30848823#0 101904581#2 101904581#3 101904581#4"/>
    </vehicle>
    <vehicle id="145" depart="1087.50">
        <route edges="-101904575#1 101904575#1 101904575#2 101904575#3 409634137"/>
    </vehicle>
    <vehicle id="146" depart="1095.00">
        <route edges="27222898#0 27222898#1 27222898#2 27222898#3 25101222#1 25101222#2 25101222#3 101904575#4 101904575#5 -1371162374#1 -1371162376#2 -36865538#1 30848823#0 101904581#2"/>
    </vehicle>
    <vehicle id="147" depart="1102.50">
        <route edges="34593466 24572451#3"/>
    </vehicle>
    <vehicle id="148" depart="1110.00">
        <route edges="244976788#0 244976788#1 244976788#2 244976788#3 25101222#3 -101904575#3 -101904575#2 -101904575#1"/>
    </vehicle>
    <vehicle id="149" depart="1117.50">
        <route edges="-1373207273#2 -1373207273#1 -101904575#5 204817300#0 204817300#1 204817300#2 70195473#0 -409895595 31185326#1 61010978"/>
    </vehicle>
    <vehicle id="150" depart="1125.00">
        <route edges="70195473#1 -31185326#1 -31185326#0 74271174#1 74271174#2 24573467#0 24573467#1 24573467#2 -1371162374#1 -1371162376#2 -36865538#1 30848823#0 101904581#2 34593465 24572451#2"/>
    </vehicle>
    <vehicle id="152" depart="1140.00">
        <route edges="-70195473#0 70195473#0 70195473#1 -31185326#1 -31185326#0"/>
    </vehicle>
    <vehicle id="153" depart="1147.50">
        <route edges="1373207273#1 1373207273#2 -1373207273#2 -1373207273#1 -101904575#5 204817300#0 204817300#1 204817300#2 70195473#0 70195473#1"/>
    </vehicle>
    <vehicle id="155" depart="1162.50">
        <route edges="70195473#1 -31185326#1 -31185326#0 74271174#1 74271174#2 24573467#0 24573467#1 24573467#2 -1371162374#1 -1371162376#2 179750964#2 179750964#4 179750964#5 179750980#0 101904575#2"/>
    </vehicle>
    <vehicle id="156" depart="1170.00">
        <route edges="101904581#4 1274037341#0 1274037341#1 179750980#0 101904582#0 101904582#2 27222898#0 27222898#1 -27222898#1"/>
    </vehicle>
    <vehicle id="157" depart="1177.50">
        <route edges="409634167#0 409634167#1 409634167#3 409634147#1 204817300#0 204817300#1 204817300#2 70195473#0 -409895595 31185326#1 61010978"/>
    </vehicle>
    <vehicle id="158" depart="1185.00">
        <route edges="23613813#0 244976788#0 244976788#1 101904582#2 27222898#0 27222898#1 27222898#2 27222898#3 25101222#1 25101222#2"/>
    </vehicle>
    <vehicle id="159" depart="1192.50">
        <route edges="-70195473#0 74271174#2 74271174#3 74271174#4"/>
    </vehicle>
    <vehicle id="162" depart="1215.00">
        <route edges="-101904575#3 27222853 244976788#3 244976788#4 204817300#1 204817300#2 70195473#0 -409895595 31185326#1"/>
    </vehicle>
    <vehicle id="163" depart="1222.50">
        <route edges="179750964#0 179750964#2 409634147#1 204817300#0 204817300#1 204817300#2 74271174#2 74271174#3 74271174#4"/>
    </vehicle>
    <vehicle id="166" depart="1245.00">
        <route edges="409634167#1 179750980#0 101904582#0 101904582#2 27222898#0 27222898#1 27222898#2 27222898#3 -27222898#3 -27222898#2"/>
    </vehicle>
    <vehicle id="168" depart="1260.00">
        <route edges="101904581#1 101904581#2 101904581#3 101904581#4 1274037341#0 1274037341#1 409634167#3 409634147#1 204817300#0 204817300#1 204817300#2 70195473#0 -409895595 409895595"/>
    </vehicle>
    <vehicle id="169" depart="1267.50">
        <route edges="244976788#3 25101222#3 101904575#4 101904575#5 -1371162374#1 -1371162376#2 -36865538#1 30848823#0 101904581#2 101904581#3 101904581#4 1274037341#0"/>
    </vehicle>
    <vehicle id="170" depart="1275.00">
        <route edges="409634167#3 409634147#1 -101904575#4 101904575#4"/>
    </vehicle>
    <vehicle id="171" depart="1282.50">
        <route edges="-101904575#3 -101904575#2 -101904575#1 -101904575#0 101904575#0"/>
    </vehicle>
    <vehicle id="173" depart="1297.50">
        <route edges="858712306#1 858712306#2 858712306#3 858712306#4 1373207274#0 -1373207273#2 -1373207273#1 -1371162374#1 -1371162376#2 -36865538#1 30848823#0 101904581#2 101904581#3 101904581#4"/>
    </vehicle>
    <vehicle id="174" depart="1305.00">
        <route edges="27222898#0 27222898#1 27222898#2 27222898#3 25101222#1 25101222#2 25101222#3 409634137 179750964#5 179750980#0"/>
    </vehicle>
    <vehicle id="176" depart="1320.00">
        <route edges="74271174#4 858712306#2 858712306#3 858712306#4 1373207274#0 -1373207273#2 -1373207273#1 -101904575#5 -101904575#4 -101904575#3 27222853 34593464 27222898#2 27222898#3 -27222898#3"/>
    </vehicle>
    <vehicle id="177" depart="1327.50">
        <route edges="858712306#1 858712306#2 858712306#3 30424888#0 30424888#1 204817300#2 70195473#0 -70195473#0"/>
    </vehicle>
    <vehicle id="178" depart="1335.00">
        <route edges="858712306#0 858712306#1 858712306#2 858712306#3 858712306#4 1373207274#0 -1373207273#2 -1373207273#1 -1371162374#1 -1371162376#2 -36865538#1 30848823#0 101904581#2"/>
    </vehicle>
    <vehicle id="180" depart="1350.00">
        <route edges="34593464 27222898#2 27222898#3 25101222#1 25101222#2 25101222#3 101904575#4 101904575#5 -1371162374#1 -1371162376#2 -36865538#1 30848823#0 101904581#2 101904581#3 101904581#4 1274037341#0 1274037341#1"/>
    </vehicle>
    <vehicle id="181" depart="1357.50">
        <route edges="25101222#2 244976788#4"/>
    </vehicle>
    <vehicle id="182" depart="1365.00">
        <route edges="204817300#1 204817300#2 74271174#2 24573467#0 24573467#1"/>
    </vehicle>
    <vehicle id="183" depart="1372.50">
        <route edges="101904582#0 244976788#2 244976788#3 244976788#4 204817300#1 30424888#2"/>
    </vehicle>
    <vehicle id="184" depart="1380.00">
        <route edges="-101904575#1 101904575#1 101904575#2 101904575#3 101904575#4 204817300#0 204817300#1 204817300#2 74271174#2 74271174#3"/>
    </vehicle>