<?xml version="1.0" encoding="UTF-8"?>

<!-- generated on 2026-03-11 14:08:51.433694 by randomTrips.py UNKNOWN
<configuration>
    <net-file value="/Users/admin/V2X_Project/Scenario/osm.net.xml.gz"/>
    <output-trip-file value="/Users/admin/V2X_Project/Scenario/background_480.trips.xml"/>
    <route-file value="/Users/admin/V2X_Project/Scenario/background_480.routes.xml"/>
    <validate value="True"/>
    <period value="7.5"/>
</configuration>
-->

<!-- generated on 2026-03-11 14:08:51 by Eclipse SUMO duarouter Version 1.20.0
<configuration xmlns:xsi="http://www.w3.org/2001/XMLSchema-instance" xsi:noNamespaceSchemaLocation="http://sumo.dlr.de/xsd/duarouterConfiguration.xsd">

    <input>
        <net-file value="/Users/admin/V2X_Project/Scenario/osm.net.xml.gz"/>
        <route-files value="/Users/admin/V2X_Project/Scenario/background_480.trips.xml"/>
    </input>

    <output>
        <output-file value="/Users/admin/V2X_Project/Scenario/background_480.trips.xml.tmp"/>
        <alternatives-output value="NUL"/>
        <write-trips value="true"/>
    </output>

    <time>
        <begin value="0.0"/>
        <end value="3600.0"/>
    </time>

    <report>
        <no-warnings value="true"/>
        <ignore-errors value="true"/>
        <no-step-log value="true"/>
    </report>

</configuration>
-->

<routes xmlns:xsi="http://www.w3.org/2001/XMLSchema-instance" xsi:noNamespaceSchemaLocation="http://sumo.dlr.de/xsd/routes_file.xsd">
    <trip id="0" depart="0.00" from="27222898#0" to="-101904575#2"/>
    <trip id="1" depart="7.50" from="1274037341#0" to="101904575#4"/>
    <trip id="2" depart="15.00" from="34593465" to="27222898#2"/>
    <trip id="3" depart="22.50" from="70195473#0" to="-1373207273#2"/>
    <trip id="4" depart="30.00" from="23613955#0" to="-101904575#3"/>
    <trip id="5" depart="37.50" from="101904581#1" to="244976788#4"/>
    <trip id="6" depart="45.00" from="-101904575#4" to="101904575#1"/>
    <trip id="7" depart="52.50" from="27222898#1" to="24572451#2"/>
    <trip id="8" depart="60.00" from="101904581#1" to="24573467#2"/>
    <trip id="10" depart="75.00" from="409634167#5" to="30424888#0"/>
    <trip id="11" depart="82.50" from="179750964#2" to="-36865538#1"/>
    <trip id="12" depart="90.00" from="858712306#0" to="1371162376#1"/>
    <trip id="13" depart="97.50" from="-27222898#2" to="-27222898#0"/>
    <trip id="15" depart="112.50" from="409634167#5" to="31185326#0"/>
    <trip id="16" depart="120.00" from="24573467#1" to="858712306#2"/>
    <trip id="17" depart="127.50" from="204817300#0" to="24572451#3"/>
    <trip id="20" depart="150.00" from="31185326#0" to="-101904575#5"/>
    <trip id="21" depart="157.50" from="101904581#2" to="101904582#0"/>
    <trip id="22" depart="165.00" from="-27222898#1" to="101904575#5"/>
    <trip id="23" depart="172.50" from="-27222898#3" to="101904581#4"/>
    <trip id="24" depart="180.00" from="27222898#0" to="1373207274#0"/>
    <trip id="25" depart="187.50" from="179750980#0" to="101904575#2"/>
    <trip id="26" depart="195.00" from="101904582#2" to="74271174#4"/>
    <trip id="28" depart="210.00" from="101904575#1" to="31185326#0"/>
    <trip id="29" depart="217.50" from="101904575#0" to="179750964#2"/>
    <trip id="30" depart="225.00" from="858712306#3" to="27060958"/>
    <trip id="31" depart="232.50" from="24978568#2" to="27222898#3"/>
    <trip id="33" depart="247.50" from="101904581#2" to="-101904575#3"/>
    <trip id="34" depart="255.00" from="1373207273#2" to="101904581#3"/>
    <trip id="35" depart="262.50" from="101904581#0" to="858712304#0"/>
    <trip id="36" depart="270.00" from="61010972#0" to="1274037341#1"/>
    <trip id="37" depart="277.50" from="27222898#2" to="179750964#5"/>
    <trip id="38" depart="285.00" from="74271174#1" to="23613955#0"/>
    <trip id="40" depart="300.00" from="24978568#2" to="101904581#2"/>
    <trip id="41" depart="307.50" from="25101222#0" to="70195473#1"/>
    <trip id="42" depart="315.00" from="204817300#2" to="101904575#3"/>
    <trip id="43" depart="322.50" from="858712306#4" to="244976788#4"/>
    <trip id="44" depart="330.00" from="-27222898#2" to="-101904575#5"/>
    <trip id="45" depart="337.50" from="-31185326#0" to="25101222#2"/>
    <trip id="46" depart="345.00" from="409634167#3" to="204817300#1"/>
    <trip id="47" depart="352.50" from="-1373207273#1" to="179750964#4"/>
    <trip id="48" depart="360.00" from="858712306#4" to="244976788#6"/>
    <trip id="50" depart="375.00" from="-101904575#2" to="30848823#0"/>
    <trip id="52" depart="390.00" from="101904582#2" to="27060958"/>
    <trip id="54" depart="405.00" from="244976788#3" to="858712304#2"/>
    <trip id="55" depart="412.50" from="61010972#0" to="101904581#2"/>
    <trip id="56" depart="420.00" from="24572451#2" to="-70195473#0"/>
    <trip id="58" depart="435.00" from="1371162376#1" to="27060958"/>
    <trip id="59" depart="442.50" from="25101222#3" to="-36865538#1"/>
    <trip id="61" depart="457.50" from="409634167#0" to="244976788#6"/>
    <trip id="62" depart="465.00" from="-101904575#1" to="1371162374#1"/>
    <trip id="63" depart="472.50" from="-101904575#3" to="74271174#3"/>
    <trip id="64" depart="480.00" from="61010978" to="45313914#0"/>
    <trip id="65" depart="487.50" from="1373207273#1" to="-1371162374#1"/>
    <trip id="66" depart="495.00" from="61010972#0" to="858712304#2"/>
    <trip id="67" depart="502.50" from="-27222898#1" to="244976788#1"/>
    <trip id="68" depart="510.00" from="-1373207273#1" to="34593465"/>
    <trip id="69" depart="517.50" from="409634147#1" to="-31185326#0"/>
    <trip id="70" depart="525.00" from="244976788#5" to="24572451#3"/>
    <trip id="72" depart="540.00" from="23613955#0" to="101904575#2"/>
    <trip id="73" depart="547.50" from="24573467#2" to="31185326#0"/>
    <trip id="74" depart="555.00" from="101904575#5" to="1274037341#1"/>
    <trip id="75" depart="562.50" from="858712306#4" to="27222853"/>
    <trip id="76" depart="570.00" from="244976788#1" to="244976788#5"/>
    <trip id="77" depart="577.50" from="-31185326#1" to="101904575#4"/>
    <trip id="78" depart="585.00" from="179750964#0" to="24573467#2"/>
    <trip id="79" depart="592.50" from="101904581#2" to="101904575#3"/>
    <trip id="80" depart="600.00" from="-1373207273#2" to="25101222#3"/>
    <trip id="81" depart="607.50" from="101904581#2" to="74271174#1"/>
    <trip id="82" depart="615.00" from="553792778#1" to="-1373207273#1"/>
    <trip id="83" depart="622.50" from="101904581#3" to="27222898#1"/>
    <trip id="84" depart="630.00" from="101904581#0" to="-31185326#0"/>
    <trip id="85" depart="637.50" from="74271174#3" to="24573467#0"/>
    <trip id="86" depart="645.00" from="244976788#5" to="409634147#1"/>
    <trip id="87" depart="652.50" from="409634167#5" to="101904575#0"/>
    <trip id="88" depart="660.00" from="-27222898#3" to="204817300#2"/>
    <trip id="89" depart="667.50" from="23613955#0" to="23613955#2"/>
    <trip id="90" depart="675.00" from="34593464" to="27222898#2"/>
    <trip id="91" depart="682.50" from="858712306#3" to="-27222898#1"/>
    <trip id="92" depart="690.00" from="23613813#0" to="1371162376#1"/>
    <trip id="95" depart="712.50" from="23613955#0" to="101904581#4"/>
    <trip id="96" depart="720.00" from="101904581#4" to="74271174#3"/>
    <trip id="98" depart="735.00" from="24978568#0" to="-101904575#5"/>
    <trip id="99" depart="742.50" from="858712306#4" to="45313914#1"/>
    <trip id="100" depart="750.00" from="858712306#1" to="74271174#3"/>
    <trip id="101" depart="757.50" from="553792778#0" to="-409895595"/>
    <trip id="102" depart="765.00" from="244976788#6" to="101904575#3"/>
    <trip id="103" depart="772.50" from="23613813#0" to="-1371162374#1"/>
    <trip id="104" depart="780.00" from="204817300#0" to="858712306#4"/>
    <trip id="105" depart="787.50" from="101904582#2" to="409634147#1"/>
    <trip id="106" depart="795.00" from="244976788#3" to="204817300#1"/>
    <trip id="107" depart="802.50" from="858712306#0" to="858712397"/>
    <trip id="108" depart="810.00" from="24978568#0" to="30848823#0"/>
    <trip id="109" depart="817.50" from="-70195473#0" to="101904582#2"/>
    <trip id="110" depart="825.00" from="858712306#1" to="24573467#1"/>
    <trip id="111" depart="832.50" from="24573467#2" to="34593464"/>
    <trip id="112" depart="840.00" from="-1371162376#2" to="24573467#2"/>
    <trip id="115" depart="862.50" from="-27222898#1" to="-70195473#0"/>
    <trip id="116" depart="870.00" from="25101222#1" to="27222898#2"/>
    <trip id="117" depart="877.50" from="101904581#3" to="-27222898#3"/>
    <trip id="119" depart="892.50" from="25101222#1" to="25101222#1"/>
    <trip id="120" depart="900.00" from="23613955#0" to="24573467#1"/>
    <trip id="121" depart="907.50" from="24573467#0" to="74271174#4"/>
    <trip id="122" depart="915.00" from="101904575#5" to="30424888#2"/>
    <trip id="123" depart="922.50" from="101904581#3" to="179750964#5"/>
    <trip id="124" depart="930.00" from="30424888#0" to="101904582#2"/>
    <trip id="125" depart="937.50" from="1373207273#2" to="34593464"/>
    <trip id="126" depart="945.00" from="-1373207273#2" to="23613955#0"/>
    <trip id="127" depart="952.50" from="858712306#4" to="858712397"/>
    <trip id="128" depart="960.00" from="-1373207273#2" to="101904575#3"/>
    <trip id="129" depart="967.50" from="101904582#2" to="74271174#4"/>
    <trip id="130" depart="975.00" from="61010978" to="61010978"/>
    <trip id="131" depart="982.50" from="179750980#0" to="-36865538#1"/>
    <trip id="133" depart="997.50" from="25101222#3" to="858712306#4"/>
    <trip id="134" depart="1005.00" from="27222898#2" to="-101904575#0"/>
    <trip id="136" depart="1020.00" from="27222898#3" to="858712304#0"/>
    <trip id="137" depart="1027.50" from="-36865538#1" to="-27222898#3"/>
    <trip id="138" depart="1035.00" from="-31185326#0" to="24572451#3"/>
    <trip id="140" depart="1050.00" from="31185326#1" to="101904575#2"/>
    <trip id="141" depart="1057.50" from="27222853" to="101904581#2"/>
    <trip id="142" depart="1065.00" from="24572451#1" to="74271174#1"/>
    <trip id="143" depart="1072.50" from="553792778#0" to="-27222898#0"/>
    <trip id="144" depart="1080.00" from="23613955#0" to="101904581#4"/>
    <trip id="145" depart="1087.50" from="-101904575#1" to="409634137"/>
    <trip id="146" depart="1095.00" from="27222898#0" to="101904581#2"/>
    <trip id="147" depart="1102.50" from="34593466" to="24572451#3"/>
    <trip id="148" depart="1110.00" from="244976788#0" to="-101904575#1"/>
    <trip id="149" depart="1117.50" from="-1373207273#2" to="61010978"/>
    <trip id="150" depart="1125.00" from="70195473#1" to="24572451#2"/>
    <trip id="152" depart="1140.00" from="-70195473#0" to="-31185326#0"/>
    <trip id="153" depart="1147.50" from="1373207273#1" to="70195473#1"/>
    <trip id="155" depart="1162.50" from="70195473#1" to="101904575#2"/>
    <trip id="156" depart="1170.00" from="101904581#4" to="-27222898#1"/>
    <trip id="157" depart="1177.50" from="409634167#0" to="61010978"/>
    <trip id="158" depart="1185.00" from="23613813#0" to="25101222#2"/>
    <trip id="159" depart="1192.50" from="-70195473#0" to="74271174#4"/>
    <trip id="162" depart="1215.00" from="-101904575#3" to="31185326#1"/>
    <trip id="163" depart="1222.50" from="179750964#0" to="74271174#4"/>
    <trip id="166" depart="1245.00" from="409634167#1" to="-27222898#2"/>
    <trip id="168" depart="1260.00" from="101904581#1" to="409895595"/>
    <trip id="169" depart="1267.50" from="244976788#3" to="1274037341#0"/>
    <trip id="170" depart="1275.00" from="409634167#3" to="101904575#4"/>
    <trip id="171" depart="1282.50" from="-101904575#3" to="101904575#0"/>
    <trip id="173" depart="1297.50" from="858712306#1" to="101904581#4"/>
    <trip id="174" depart="1305.00" from="27222898#0" to="179750980#0"/>
    <trip id="176" depart="1320.00" from="74271174#4" to="-27222898#3"/>
    <trip id="177" depart="1327.50" from="858712306#1" to="-70195473#0"/>
    <trip id="178" depart="1335.00" from="858712306#0" to="101904581#2"/>
    <trip id="180" depart="1350.00" from="34593464" to="1274037341#1"/>
    <trip id="181" depart="1357.50" from="25101222#2" to="244976788#4"/>
    <trip id="182" depart="1365.00" from="204817300#1" to="24573467#1"/>
    <trip id="183" depart="1372.50" from="101904582#0" to="30424888#2"/>
    <trip id="184" depart="1380.00" from="-101904575#1" to="74271174#3"/>
    <trip id="185" depart="1387.50" from="24573467#1" to="30848823#0"/>
    <trip id="186" depart="1395.00" from="34593466" to="27222898#1"/>
    <trip id="187" depart="1402.50" from="179750964#5" to="-1371162376#2"/>
    <trip id="188" depart="1410.00" from="27222898#3" to="1371162375#0"/>
    <trip id="190" depart="1425.00" from="31185326#1" to="101904582#2"/>
    <trip id="191" depart="1432.50" from="1373207273#1" to="204817300#0"/>
    <trip id="192" depart="1440.00" from="23613813#0" to="101904582#2"/>
    <trip id="193" depart="1447.50" from="-34593464" to="204817300#1"/>
    <trip id="194" depart="1455.00" from="74271174#4" to="27222898#2"/>
    <trip id="195" depart="1462.50" from="70195473#1" to="25101222#1"/>
    <trip id="196" depart="1470.00" from="1371162376#1" to="24572451#2"/>
    <trip id="197" depart="1477.50" from="-101904575#1" to="101904582#0"/>
    <trip id="198" depart="1485.00" from="244976788#0" to="24573467#1"/>
    <trip id="199" depart="1492.50" from="27222898#2" to="23613955#2"/>
    <trip id="200" depart="1500.00" from="244976788#1" to="101904575#3"/>
    <trip id="201" depart="1507.50" from="244976788#5" to="70195473#1"/>
    <trip id="202" depart="1515.00" from="409634167#3" to="-61010972#0"/>
    <trip id="203" depart="1522.50" from="-27222898#1" to="244976788#5"/>
    <trip id="204" depart="1530.00" from="27222853" to="1371162375#0"/>
    <trip id="205" depart="1537.50" from="409895595" to="34593464"/>
    <trip id="206" depart="1545.00" from="30424888#0" to="101904575#4"/>
    <trip id="207" depart="1552.50" from="101904575#4" to="-101904575#2"/>
    <trip id="209" depart="1567.50" from="553792778#0" to="-1373207273#1"/>
    <trip id="210" depart="1575.00" from="23613813#1" to="25101222#3"/>
    <trip id="211" depart="1582.50" from="101904575#4" to="30424888#0"/>
    <trip id="213" depart="1597.50" from="27222898#2" to="-101904575#0"/>
    <trip id="214" depart="1605.00" from="36865538#0" to="409634137"/>
    <trip id="215" depart="1612.50" from="-31185326#0" to="204817300#2"/>
    <trip id="219" depart="1642.50" from="244976788#3" to="409634167#3"/>
    <trip id="220" depart="1650.00" from="27222898#3" to="858712306#4"/>
    <trip id="221" depart="1657.50" from="25101222#1" to="858712304#2"/>
    <trip id="222" depart="1665.00" from="70195473#0" to="25101222#1"/>
    <trip id="223" depart="1672.50" from="31185326#1" to="244976788#4"/>
    <trip id="225" depart="1687.50" from="70195473#1" to="34593464"/>
    <trip id="226" depart="1695.00" from="244976788#5" to="101904581#2"/>
    <trip id="227" depart="1702.50" from="101904581#4" to="27060958"/>
    <trip id="228" depart="1710.00" from="409634147#1" to="244976788#5"/>
    <trip id="229" depart="1717.50" from="27222853" to="101904581#4"/>
    <trip id="230" depart="1725.00" from="-1373207273#2" to="101904582#0"/>
    <trip id="231" depart="1732.50" from="1274037341#0" to="1371162374#1"/>
    <trip id="232" depart="1740.00" from="24573467#2" to="-31185326#1"/>
    <trip id="233" depart="1747.50" from="101904581#2" to="30424888#0"/>
    <trip id="234" depart="1755.00" from="31185326#0" to="-1371162376#2"/>
    <trip id="235" depart="1762.50" from="23613813#0" to="24572451#2"/>
    <trip id="236" depart="1770.00" from="23613813#1" to="101904575#2"/>
    <trip id="237" depart="1777.50" from="23613955#0" to="74271174#1"/>
    <trip id="238" depart="1785.00" from="25101222#0" to="30424888#0"/>
    <trip id="239" depart="1792.50" from="553792778#1" to="34593466"/>
    <trip id="240" depart="1800.00" from="204817300#0" to="-101904575#0"/>
    <trip id="241" depart="1807.50" from="179750964#4" to="34593465"/>
    <trip id="242" depart="1815.00" from="553792778#1" to="858712304#2"/>
    <trip id="243" depart="1822.50" from="23613955#0" to="34593464"/>
    <trip id="245" depart="1837.50" from="101904581#1" to="101904575#3"/>
    <trip id="246" depart="1845.00" from="244976788#1" to="-101904575#3"/>
    <trip id="247" depart="1852.50" from="179750964#0" to="27222898#2"/>
    <trip id="248" depart="1860.00" from="23613813#0" to="-409895595"/>
    <trip id="249" depart="1867.50" from="244976788#4" to="-31185326#0"/>
    <trip id="250" depart="1875.00" from="27060958" to="-101904575#3"/>
    <trip id="252" depart="1890.00" from="-101904575#4" to="27060958"/>
    <trip id="253" depart="1897.50" from="-36865538#1" to="23613955#2"/>
    <trip id="254" depart="1905.00" from="-1371162374#1" to="179750964#2"/>
    <trip id="255" depart="1912.50" from="101904581#0" to="1371162374#1"/>
    <trip id="256" depart="1920.00" from="409634137" to="179750964#2"/>
    <trip id="257" depart="1927.50" from="36865538#0" to="45313914#1"/>
    <trip id="258" depart="1935.00" from="101904582#0" to="-1373207273#2"/>
    <trip id="260" depart="1950.00" from="858712306#4" to="1373207273#1"/>
    <trip id="261" depart="1957.50" from="27222898#1" to="409634147#1"/>
    <trip id="262" depart="1965.00" from="27222898#1" to="34593465"/>
    <trip id="264" depart="1980.00" from="-101904575#3" to="-36865538#1"/>
    <trip id="265" depart="1987.50" from="-34593464" to="27222898#1"/>
    <trip id="266" depart="1995.00" from="24978568#2" to="101904575#3"/>
    <trip id="267" depart="2002.50" from="30848823#0" to="34593466"/>
    <trip id="269" depart="2017.50" from="36865538#0" to="-27222898#2"/>
    <trip id="270" depart="2025.00" from="409895595" to="858712306#2"/>
    <trip id="271" depart="2032.50" from="-31185326#0" to="-101904575#2"/>
    <trip id="272" depart="2040.00" from="1373207273#1" to="27222898#2"/>
    <trip id="273" depart="2047.50" from="858712306#0" to="179750964#5"/>
    <trip id="274" depart="2055.00" from="31185326#1" to="-1373207273#1"/>
    <trip id="275" depart="2062.50" from="30424888#2" to="25101222#2"/>
    <trip id="276" depart="2070.00" from="-27222898#3" to="409634137"/>
    <trip id="278" depart="2085.00" from="-31185326#1" to="858712306#4"/>
    <trip id="279" depart="2092.50" from="409634167#1" to="1373207273#1"/>
    <trip id="280" depart="2100.00" from="244976788#0" to="1373207274#0"/>
    <trip id="281" depart="2107.50" from="24572451#3" to="1371162376#1"/>
    <trip id="282" depart="2115.00" from="553792778#0" to="409895595"/>
    <trip id="284" depart="2130.00" from="27222898#0" to="45313914#0"/>
    <trip id="286" depart="2145.00" from="34593465" to="858712306#2"/>
    <trip id="287" depart="2152.50" from="1274037341#0" to="409634167#5"/>
    <trip id="288" depart="2160.00" from="24573467#1" to="244976788#1"/>
    <trip id="289" depart="2167.50" from="244976788#1" to="31185326#0"/>
    <trip id="294" depart="2205.00" from="204817300#0" to="-101904575#3"/>
    <trip id="295" depart="2212.50" from="553792778#0" to="-70195473#0"/>
    <trip id="296" depart="2220.00" from="101904581#0" to="409634167#3"/>
    <trip id="297" depart="2227.50" from="179750964#2" to="61010978"/>
    <trip id="298" depart="2235.00" from="30848823#0" to="101904581#4"/>
    <trip id="299" depart="2242.50" from="-101904575#2" to="858712304#2"/>
    <trip id="300" depart="2250.00" from="-27222898#1" to="30848823#0"/>
    <trip id="301" depart="2257.50" from="24572451#1" to="34593465"/>
    <trip id="302" depart="2265.00" from="30424888#2" to="27060958"/>
    <trip id="304" depart="2280.00" from="-27222898#2" to="101904575#4"/>
    <trip id="305" depart="2287.50" from="30424888#2" to="1274037341#0"/>
    <trip id="307" depart="2302.50" from="24573467#1" to="204817300#2"/>
    <trip id="308" depart="2310.00" from="34593466" to="1371162375#0"/>
    <trip id="309" depart="2317.50" from="30848823#0" to="101904581#3"/>
    <trip id="310" depart="2325.00" from="101904581#4" to="-27222898#3"/>
    <trip id="311" depart="2332.50" from="101904575#4" to="-27222898#3"/>
    <trip id="312" depart="2340.00" from="24573467#1" to="34593466"/>
    <trip id="313" depart="2347.50" from="101904575#3" to="101904575#3"/>
    <trip id="314" depart="2355.00" from="244976788#6" to="30848823#0"/>
    <trip id="315" depart="2362.50" from="858712306#2" to="244976788#6"/>
    <trip id="316" depart="2370.00" from="1274037341#1" to="-27222898#1"/>
    <trip id="317" depart="2377.50" from="101904575#4" to="101904575#4"/>
    <trip id="318" depart="2385.00" from="101904575#2" to="-101904575#1"/>
    <trip id="319" depart="2392.50" from="24573467#1" to="101904581#3"/>
    <trip id="320" depart="2400.00" from="858712306#2" to="24572451#3"/>
    <trip id="321" depart="2407.50" from="30848823#0" to="-31185326#0"/>
    <trip id="323" depart="2422.50" from="61010972#0" to="24573467#0"/>
    <trip id="325" depart="2437.50" from="101904575#3" to="-101904575#5"/>
    <trip id="327" depart="2452.50" from="409895595" to="179750980#0"/>
    <trip id="328" depart="2460.00" from="-1373207273#2" to="25101222#3"/>
    <trip id="329" depart="2467.50" from="-1371162376#2" to="-34593464"/>
    <trip id="330" depart="2475.00" from="24978568#2" to="1274037341#0"/>
    <trip id="331" depart="2482.50" from="858712306#4" to="-27222898#3"/>
    <trip id="333" depart="2497.50" from="409634167#1" to="101904575#4"/>
    <trip id="336" depart="2520.00" from="858712306#3" to="1274037341#0"/>
    <trip id="338" depart="2535.00" from="34593466" to="858712304#2"/>
    <trip id="339" depart="2542.50" from="101904575#5" to="101904575#2"/>
    <trip id="340" depart="2550.00" from="27222898#2" to="-36865538#1"/>
    <trip id="341" depart="2557.50" from="101904575#1" to="-1373207273#1"/>
    <trip id="343" depart="2572.50" from="25101222#1" to="101904582#0"/>
    <trip id="344" depart="2580.00" from="101904581#2" to="30424888#1"/>
    <trip id="345" depart="2587.50" from="30848823#0" to="23613955#0"/>
    <trip id="346" depart="2595.00" from="30424888#2" to="74271174#3"/>
    <trip id="347" depart="2602.50" from="409634167#1" to="25101222#2"/>
    <trip id="348" depart="2610.00" from="27222898#3" to="74271174#4"/>
    <trip id="349" depart="2617.50" from="23613955#0" to="24572451#2"/>
    <trip id="350" depart="2625.00" from="27222898#1" to="74271174#1"/>
    <trip id="352" depart="2640.00" from="101904575#1" to="1274037341#0"/>
    <trip id="353" depart="2647.50" from="36865538#0" to="24573467#0"/>
    <trip id="354" depart="2655.00" from="1371162374#1" to="-31185326#0"/>
    <trip id="355" depart="2662.50" from="30424888#2" to="30424888#1"/>
    <trip id="356" depart="2670.00" from="74271174#4" to="244976788#3"/>
    <trip id="357" depart="2677.50" from="24572451#1" to="-1373207273#2"/>
    <trip id="358" depart="2685.00" from="-101904575#5" to="204817300#2"/>
    <trip id="363" depart="2722.50" from="30424888#0" to="101904581#3"/>
    <trip id="364" depart="2730.00" from="-101904575#5" to="34593465"/>
    <trip id="365" depart="2737.50" from="244976788#5" to="27222853"/>
    <trip id="366" depart="2745.00" from="74271174#1" to="-70195473#0"/>
    <trip id="367" depart="2752.50" from="25101222#0" to="25101222#3"/>
    <trip id="368" depart="2760.00" from="24572451#1" to="-27222898#0"/>
    <trip id="369" depart="2767.50" from="179750964#4" to="1371162375#0"/>
    <trip id="371" depart="2782.50" from="1373207274#0" to="30424888#0"/>
    <trip id="372" depart="2790.00" from="1371162374#1" to="858712304#0"/>
    <trip id="374" depart="2805.00" from="244976788#3" to="1274037341#1"/>
    <trip id="375" depart="2812.50" from="1373207274#0" to="858712306#2"/>
    <trip id="376" depart="2820.00" from="23613813#0" to="244976788#5"/>
    <trip id="377" depart="2827.50" from="858712306#3" to="27222898#0"/>
    <trip id="378" depart="2835.00" from="24573467#2" to="204817300#0"/>
    <trip id="379" depart="2842.50" from="101904575#3" to="1373207273#2"/>
    <trip id="380" depart="2850.00" from="36865538#0" to="25101222#2"/>
    <trip id="381" depart="2857.50" from="409634137" to="101904575#2"/>
    <trip id="382" depart="2865.00" from="24978568#0" to="74271174#3"/>
    <trip id="383" depart="2872.50" from="244976788#1" to="30424888#0"/>
    <trip id="384" depart="2880.00" from="-31185326#1" to="858712306#2"/>
    <trip id="386" depart="2895.00" from="101904575#0" to="24572451#3"/>
    <trip id="387" depart="2902.50" from="24978568#0" to="-27222898#0"/>
    <trip id="388" depart="2910.00" from="858712306#4" to="74271174#2"/>
    <trip id="389" depart="2917.50" from="244976788#4" to="-27222898#3"/>
    <trip id="391" depart="2932.50" from="31185326#1" to="244976788#4"/>
    <trip id="392" depart="2940.00" from="1274037341#0" to="45313914#1"/>
    <trip id="394" depart="2955.00" from="24978568#0" to="179750964#4"/>
    <trip id="395" depart="2962.50" from="74271174#2" to="244976788#4"/>
    <trip id="398" depart="2985.00" from="23613813#1" to="74271174#4"/>
    <trip id="399" depart="2992.50" from="24572451#3" to="409895595"/>
    <trip id="400" depart="3000.00" from="1274037341#1" to="101904582#2"/>
    <trip id="401" depart="3007.50" from="25101222#0" to="858712397"/>
    <trip id="402" depart="3015.00" from="24572451#1" to="-34593464"/>
    <trip id="403" depart="3022.50" from="24573467#1" to="1371162376#1"/>
    <trip id="404" depart="3030.00" from="24978568#0" to="24572451#2"/>
    <trip id="405" depart="3037.50" from="244976788#3" to="1371162374#1"/>
    <trip id="406" depart="3045.00" from="101904575#3" to="30424888#0"/>
    <trip id="407" depart="3052.50" from="24980183" to="101904575#5"/>
    <trip id="408" depart="3060.00" from="409634167#0" to="-101904575#4"/>
    <trip id="409" depart="3067.50" from="34593466" to="30424888#1"/>
    <trip id="411" depart="3082.50" from="27222898#3" to="409895595"/>
    <trip id="412" depart="3090.00" from="858712306#2" to="244976788#2"/>
    <trip id="413" depart="3097.50" from="-101904575#5" to="244976788#3"/>
    <trip id="416" depart="3120.00" from="24573467#0" to="23613955#0"/>
    <trip id="417" depart="3127.50" from="34593464" to="204817300#0"/>
    <trip id="418" depart="3135.00" from="27222898#2" to="-36865538#1"/>
    <trip id="419" depart="3142.50" from="244976788#4" to="858712306#2"/>
    <trip id="420" depart="3150.00" from="179750964#0" to="30424888#0"/>
    <trip id="422" depart="3165.00" from="553792778#1" to="553792778#2"/>
    <trip id="423" depart="3172.50" from="204817300#0" to="1274037341#1"/>
    <trip id="424" depart="3180.00" from="31185326#1" to="34593465"/>
    <trip id="425" depart="3187.50" from="61010972#0" to="-101904575#4"/>
    <trip id="426" depart="3195.00" from="-1373207273#1" to="25101222#3"/>
    <trip id="427" depart="3202.50" from="74271174#1" to="858712397"/>
    <trip id="429" depart="3217.50" from="-27222898#3" to="25101222#3"/>
    <trip id="431" depart="3232.50" from="30424888#2" to="74271174#1"/>
    <trip id="433" depart="3247.50" from="1371162374#1" to="179750964#2"/>
    <trip id="435" depart="3262.50" from="24980183" to="409634167#1"/>
    <trip id="436" depart="3270.00" from="101904575#1" to="-1373207273#1"/>
    <trip id="437" depart="3277.50" from="61010972#0" to="25101222#2"/>
    <trip id="438" depart="3285.00" from="101904581#3" to="74271174#2"/>
    <trip id="439" depart="3292.50" from="-409895595" to="23613955#2"/>
    <trip id="441" depart="3307.50" from="-101904575#2" to="409634167#3"/>
    <trip id="442" depart="3315.00" from="70195473#1" to="27222898#2"/>
    <trip id="444" depart="3330.00" from="179750964#2" to="24573467#2"/>
    <trip id="445" depart="3337.50" from="27222898#0" to="204817300#1"/>
    <trip id="447" depart="3352.50" from="101904575#4" to="179750964#4"/>
    <trip id="448" depart="3360.00" from="244976788#6" to="101904575#5"/>
    <trip id="449" depart="3367.50" from="24980183" to="24573467#0"/>
    <trip id="450" depart="3375.00" from="858712306#4" to="101904582#2"/>
    <trip id="451" depart="3382.50" from="858712306#2" to="27222898#0"/>
    <trip id="453" depart="3397.50" from="30424888#1" to="34593464"/>
    <trip id="455" depart="3412.50" from="24572451#2" to="74271174#1"/>
    <trip id="456" depart="3420.00" from="1274037341#1" to="409634167#3"/>
    <trip id="457" depart="3427.50" from="25101222#2" to="1373207273#1"/>
    <trip id="458" depart="3435.00" from="27222898#0" to="25101222#2"/>
    <trip id="459" depart="3442.50" from="30424888#0" to="30848823#0"/>
    <trip id="460" depart="3450.00" from="27222898#2" to="45313914#1"/>
    <trip id="461" depart="3457.50" from="27222853" to="74271174#1"/>
    <trip id="462" depart="3465.00" from="27222898#1" to="1274037341#0"/>
    <trip id="463" depart="3472.50" from="244976788#1" to="24573467#1"/>
    <trip id="464" depart="3480.00" from="34593465" to="-27222898#0"/>
    <trip id="465" depart="3487.50" from="1371162374#1" to="34593464"/>
    <trip id="466" depart="3495.00" from="101904575#2" to="-31185326#0"/>
    <trip id="467" depart="3502.50" from="24573467#2" to="858712306#2"/>
    <trip id="468" depart="3510.00" from="24573467#1" to="74271174#2"/>
    <trip id="470" depart="3525.00" from="409895595" to="244976788#1"/>
    <trip id="471" depart="3532.50" from="409634167#5" to="34593464"/>
    <trip id="472" depart="3540.00" from="179750964#0" to="-27222898#3"/>
    <trip id="473" depart="3547.50" from="858712306#0" to="-31185326#1"/>
    <trip id="475" depart="3562.50" from="34593464" to="858712306#3"/>
    <trip id="476" depart="3570.00" from="858712306#1" to="409634167#3"/>
    <trip id="479" depart="3592.50" from="244976788#3" to="27222898#2"/>
</routes>
