<routes>
    <vType id="car" accel="2.6" decel="4.5" sigma="0.5" length="5" maxSpeed="20" guiShape="passenger"/>

    <trip id="targeted_0" type="car" depart="0.0" from="409634167#1" to="179750980#0"/>
    <trip id="targeted_1" type="car" depart="5.0" from="1274037341#1" to="858712304#0"/>
    <trip id="targeted_2" type="car" depart="10.0" from="179750964#5" to="179750980#0"/>
    <trip id="targeted_3" type="car" depart="15.0" from="1274037341#1" to="179750980#0"/>
    <trip id="targeted_4" type="car" depart="20.0" from="409634167#1" to="179750980#0"/>
    <trip id="targeted_5" type="car" depart="25.0" from="409634167#1" to="858712304#0"/>
    <trip id="targeted_6" type="car" depart="30.0" from="409634167#1" to="179750980#0"/>
    <trip id="targeted_7" type="car" depart="35.0" from="409634167#1" to="409634167#3"/>
    <trip id="targeted_8" type="car" depart="40.0" from="1274037341#1" to="179750980#0"/>
    <trip id="targeted_9" type="car" depart="45.0" from="1274037341#1" to="179750980#0"/>
    <trip id="targeted_10" type="car" depart="50.0" from="1274037341#1" to="858712304#0"/>
    <trip id="targeted_11" type="car" depart="55.0" from="409634167#1" to="179750980#0"/>
    <trip id="targeted_12" type="car" depart="60.0" from="409634167#1" to="179750980#0"/>
    <trip id="targeted_13" type="car" depart="65.0" from="409634167#1" to="858712304#0"/>
    <trip id="targeted_14" type="car" depart="70.0" from="409634167#1" to="858712304#0"/>
    <trip id="targeted_15" type="car" depart="75.0" from="179750964#5" to="179750980#0"/>
    <trip id="targeted_16" type="car" depart="80.0" from="179750964#5" to="858712304#0"/>
    <trip id="targeted_17" type="car" depart="85.0" from="179750964#5" to="179750980#0"/>
    <trip id="targeted_18" type="car" depart="90.0" from="1274037341#1" to="858712304#0"/>
    <trip id="targeted_19" type="car" depart="95.0" from="179750964#5" to="409634167#3"/>
    <trip id="targeted_20" type="car" depart="100.0" from="179750964#5" to="179750980#0"/>
    <trip id="targeted_21" type="car" depart="105.0" from="1274037341#1" to="409634167#3"/>
    <trip id="targeted_22" type="car" depart="110.0" from="1274037341#1" to="179750980#0"/>
    <trip id="targeted_23" type="car" depart="115.0" from="179750964#5" to="179750980#0"/>
    <trip id="targeted_24" type="car" depart="120.0" from="179750964#5" to="409634167#3"/>
    <trip id="targeted_25" type="car" depart="125.0" from="409634167#1" to="409634167#3"/>
    <trip id="targeted_26" type="car" depart="130.0" from="1274037341#1" to="858712304#0"/>
    <trip id="targeted_27" type="car" depart="135.0" from="179750964#5" to="858712304#0"/>
    <trip id="targeted_28" type="car" depart="140.0" from="1274037341#1" to="409634167#3"/>
    <trip id="targeted_29" type="car" depart="145.0" from="1274037341#1" to="858712304#0"/>
    <trip id="targeted_30" type="car" depart="150.0" from="179750964#5" to="858712304#0"/>
    <trip id="targeted_31" type="car" depart="155.0" from="409634167#1" to="409634167#3"/>
    <trip id="targeted_32" type="car" depart="160.0" from="409634167#1" to="179750980#0"/>
    <trip id="targeted_33" type="car" depart="165.0" from="409634167#1" to="179750980#0"/>
    <trip id="targeted_34" type="car" depart="170.0" from="1274037341#1" to="858712304#0"/>
    <trip id="targeted_35" type="car" depart="175.0" from="1274037341#1" to="409634167#3"/>
    <trip id="targeted_36" type="car" depart="180.0" from="1274037341#1" to="179750980#0"/>
    <trip id="targeted_37" type="car" depart="185.0" from="1274037341#1" to="409634167#3"/>
    <trip id="targeted_38" type="car" depart="190.0" from="179750964#5" to="409634167#3"/>
    <trip id="targeted_39" type="car" depart="195.0" from="409634167#1" to="409634167#3"/>
    <trip id="targeted_40" type="car" depart="200.0" from="1274037341#1" to="409634167#3"/>
    <trip id="targeted_41" type="car" depart="205.0" from="179750964#5" to="179750980#0"/>
    <trip id="targeted_42" type="car" depart="210.0" from="409634167#1" to="409634167#3"/>
    <trip id="targeted_43" type="car" depart="215.0" from="409634167#1" to="858712304#0"/>
    <trip id="targeted_44" type="car" depart="220.0" from="409634167#1" to="179750980#0"/>
    <trip id="targeted_45" type="car" depart="225.0" from="409634167#1" to="858712304#0"/>
    <trip id="targeted_46" type="car" depart="230.0" from="1274037341#1" to="858712304#0"/>
    <trip id="targeted_47" type="car" depart="235.0" from="409634167#1" to="179750980#0"/>
    <trip id="targeted_48" type="car" depart="240.0" from="1274037341#1" to="409634167#3"/>
    <trip id="targeted_49" type="car" depart="245.0" from="179750964#5" to="409634167#3"/>
    <trip id="targeted_50" type="car" depart="250.0" from="409634167#1" to="858712304#0"/>
    <trip id="targeted_51" type="car" depart="255.0" from="409634167#1" to="179750980#0"/>
    <trip id="targeted_52" type="car" depart="260.0" from="409634167#1" to="409634167#3"/>
    <trip id="targeted_53" type="car" depart="265.0" from="1274037341#1" to="179750980#0"/>
    <trip id="targeted_54" type="car" depart="270.0" from="1274037341#1" to="409634167#3"/>
    <trip id="targeted_55" type="car" depart="275.0" from="179750964#5" to="409634167#3"/>
    <trip id="targeted_56" type="car" depart="280.0" from="1274037341#1" to="179750980#0"/>
    <trip id="targeted_57" type="car" depart="285.0" from="409634167#1" to="858712304#0"/>
    <trip id="targeted_58" type="car" depart="290.0" from="179750964#5" to="179750980#0"/>
    <trip id="targeted_59" type="car" depart="295.0" from="409634167#1" to="409634167#3"/>
    <trip id="targeted_60" type="car" depart="300.0" from="179750964#5" to="858712304#0"/>
    <trip id="targeted_61" type="car" depart="305.0" from="179750964#5" to="179750980#0"/>
    <trip id="targeted_62" type="car" depart="310.0" from="179750964#5" to="179750980#0"/>
    <trip id="targeted_63" type="car" depart="315.0" from="1274037341#1" to="858712304#0"/>
    <trip id="targeted_64" type="car" depart="320.0" from="409634167#1" to="858712304#0"/>
    <trip id="targeted_65" type="car" depart="325.0" from="179750964#5" to="858712304#0"/>
    <trip id="targeted_66" type="car" depart="330.0" from="409634167#1" to="409634167#3"/>
    <trip id="targeted_67" type="car" depart="335.0" from="409634167#1" to="409634167#3"/>
    <trip id="targeted_68" type="car" depart="340.0" from="179750964#5" to="179750980#0"/>
    <trip id="targeted_69" type="car" depart="345.0" from="1274037341#1" to="858712304#0"/>
    <trip id="targeted_70" type="car" depart="350.0" from="179750964#5" to="179750980#0"/>
    <trip id="targeted_71" type="car" depart="355.0" from="1274037341#1" to="179750980#0"/>
    <trip id="targeted_72" type="car" depart="360.0" from="1274037341#1" to="858712304#0"/>
    <trip id="targeted_73" type="car" depart="365.0" from="1274037341#1" to="858712304#0"/>
    <trip id="targeted_74" type="car" depart="370.0" from="179750964#5" to="858712304#0"/>
    <trip id="targeted_75" type="car" depart="375.0" from="1274037341#1" to="409634167#3"/>
    <trip id="targeted_76" type="car" depart="380.0" from="179750964#5" to="858712304#0"/>
    <trip id="targeted_77" type="car" depart="385.0" from="179750964#5" to="858712304#0"/>
    <trip id="targeted_78" type="car" depart="390.0" from="179750964#5" to="858712304#0"/>
    <trip id="targeted_79" type="car" depart="395.0" from="1274037341#1" to="858712304#0"/>
    <trip id="targeted_80" type="car" depart="400.0" from="409634167#1" to="179750980#0"/>
    <trip id="targeted_81" type="car" depart="405.0" from="409634167#1" to="858712304#0"/>
    <trip id="targeted_82" type="car" depart="410.0" from="179750964#5" to="858712304#0"/>
    <trip id="targeted_83" type="car" depart="415.0" from="179750964#5" to="179750980#0"/>
    <trip id="targeted_84" type="car" depart="420.0" from="179750964#5" to="409634167#3"/>
    <trip id="targeted_85" type="car" depart="425.0" from="1274037341#1" to="409634167#3"/>
    <trip id="targeted_86" type="car" depart="430.0" from="1274037341#1" to="858712304#0"/>
    <trip id="targeted_87" type="car" depart="435.0" from="409634167#1" to="409634167#3"/>
    <trip id="targeted_88" type="car" depart="440.0" from="409634167#1" to="179750980#0"/>
    <trip id="targeted_89" type="car" depart="445.0" from="409634167#1" to="179750980#0"/>
    <trip id="targeted_90" type="car" depart="450.0" from="409634167#1" to="409634167#3"/>
    <trip id="targeted_91" type="car" depart="455.0" from="409634167#1" to="858712304#0"/>
    <trip id="targeted_92" type="car" depart="460.0" from="409634167#1" to="179750980#0"/>
    <trip id="targeted_93" type="car" depart="465.0" from="1274037341#1" to="409634167#3"/>
    <trip id="targeted_94" type="car" depart="470.0" from="1274037341#1" to="858712304#0"/>
    <trip id="targeted_95" type="car" depart="475.0" from="409634167#1" to="179750980#0"/>
    <trip id="targeted_96" type="car" depart="480.0" from="409634167#1" to="409634167#3"/>
    <trip id="targeted_97" type="car" depart="485.0" from="179750964#5" to="179750980#0"/>
    <trip id="targeted_98" type="car" depart="490.0" from="1274037341#1" to="409634167#3"/>
    <trip id="targeted_99" type="car" depart="495.0" from="179750964#5" to="179750980#0"/>
    <trip id="targeted_100" type="car" depart="500.0" from="1274037341#1" to="179750980#0"/>
    <trip id="targeted_101" type="car" depart="505.0" from="409634167#1" to="179750980#0"/>
    <trip id="targeted_102" type="car" depart="510.0" from="1274037341#1" to="858712304#0"/>
    <trip id="targeted_103" type="car" depart="515.0" from="179750964#5" to="179750980#0"/>
    <trip id="targeted_104" type="car" depart="520.0" from="409634167#1" to="179750980#0"/>
    <trip id="targeted_105" type="car" depart="525.0" from="1274037341#1" to="858712304#0"/>
    <trip id="targeted_106" type="car" depart="530.0" from="179750964#5" to="858712304#0"/>
    <trip id="targeted_107" type="car" depart="535.0" from="1274037341#1" to="409634167#3"/>
    <trip id="targeted_108" type="car" depart="540.0" from="409634167#1" to="858712304#0"/>
    <trip id="targeted_109" type="car" depart="545.0" from="179750964#5" to="179750980#0"/>
    <trip id="targeted_110" type="car" depart="550.0" from="409634167#1" to="858712304#0"/>
    <trip id="targeted_111" type="car" depart="555.0" from="409634167#1" to="179750980#0"/>
    <trip id="targeted_112" type="car" depart="560.0" from="409634167#1" to="409634167#3"/>
    <trip id="targeted_113" type="car" depart="565.0" from="179750964#5" to="858712304#0"/>
    <trip id="targeted_114" type="car" depart="570.0" from="409634167#1" to="409634167#3"/>
    <trip id="targeted_115" type="car" depart="575.0" from="179750964#5" to="858712304#0"/>
    <trip id="targeted_116" type="car" depart="580.0" from="179750964#5" to="179750980#0"/>
    <trip id="targeted_117" type="car" depart="585.0" from="1274037341#1" to="179750980#0"/>
    <trip id="targeted_118" type="car" depart="590.0" from="1274037341#1" to="409634167#3"/>
    <trip id="targeted_119" type="car" depart="595.0" from="1274037341#1" to="858712304#0"/>
    <trip id="targeted_120" type="car" depart="600.0" from="409634167#1" to="179750980#0"/>
    <trip id="targeted_121" type="car" depart="605.0" from="409634167#1" to="179750980#0"/>
    <trip id="targeted_122" type="car" depart="610.0" from="1274037341#1" to="179750980#0"/>
    <trip id="targeted_123" type="car" depart="615.0" from="409634167#1" to="858712304#0"/>
    <trip id="targeted_124" type="car" depart="620.0" from="1274037341#1" to="179750980#0"/>
    <trip id="targeted_125" type="car" depart="625.0" from="1274037341#1" to="179750980#0"/>
    <trip id="targeted_126" type="car" depart="630.0" from="179750964#5" to="179750980#0"/>
    <trip id="targeted_127" type="car" depart="635.0" from="409634167#1" to="179750980#0"/>
    <trip id="targeted_128" type="car" depart="640.0" from="179750964#5" to="858712304#0"/>
    <trip id="targeted_129" type="car" depart="645.0" from="179750964#5" to="179750980#0"/>
    <trip id="targeted_130" type="car" depart="650.0" from="409634167#1" to="179750980#0"/>
    <trip id="targeted_131" type="car" depart="655.0" from="409634167#1" to="858712304#0"/>
    <trip id="targeted_132" type="car" depart="660.0" from="409634167#1" to="409634167#3"/>
    <trip id="targeted_133" type="car" depart="665.0" from="1274037341#1" to="409634167#3"/>
    <trip id="targeted_134" type="car" depart="670.0" from="179750964#5" to="179750980#0"/>
    <trip id="targeted_135" type="car" depart="675.0" from="1274037341#1" to="179750980#0"/>
    <trip id="targeted_136" type="car" depart="680.0" from="409634167#1" to="409634167#3"/>
    <trip id="targeted_137" type="car" depart="685.0" from="179750964#5" to="409634167#3"/>
    <trip id="targeted_138" type="car" depart="690.0" from="179750964#5" to="409634167#3"/>
    <trip id="targeted_139" type="car" depart="695.0" from="409634167#1" to="179750980#0"/>
    <trip id="targeted_140" type="car" depart="700.0" from="409634167#1" to="858712304#0"/>
    <trip id="targeted_141" type="car" depart="705.0" from="409634167#1" to="179750980#0"/>
    <trip id="targeted_142" type="car" depart="710.0" from="1274037341#1" to="409634167#3"/>
    <trip id="targeted_143" type="car" depart="715.0" from="409634167#1" to="409634167#3"/>
    <trip id="targeted_144" type="car" depart="720.0" from="1274037341#1" to="179750980#0"/>
    <trip id="targeted_145" type="car" depart="725.0" from="1274037341#1" to="179750980#0"/>
    <trip id="targeted_146" type="car" depart="730.0" from="409634167#1" to="409634167#3"/>
    <trip id="targeted_147" type="car" depart="735.0" from="1274037341#1" to="409634167#3"/>
    <trip id="targeted_148" type="car" depart="740.0" from="1274037341#1" to="409634167#3"/>
    <trip id="targeted_149" type="car" depart="745.0" from="179750964#5" to="179750980#0"/>
    <trip id="targeted_150" type="car" depart="750.0" from="1274037341#1" to="409634167#3"/>
    <trip id="targeted_151" type="car" depart="755.0" from="409634167#1" to="179750980#0"/>
    <trip id="targeted_152" type="car" depart="760.0" from="1274037341#1" to="858712304#0"/>
    <trip id="targeted_153" type="car" depart="765.0" from="409634167#1" to="179750980#0"/>
    <trip id="targeted_154" type="car" depart="770.0" from="1274037341#1" to="179750980#0"/>
    <trip id="targeted_155" type="car" depart="775.0" from="1274037341#1" to="409634167#3"/>
    <trip id="targeted_156" type="car" depart="780.0" from="179750964#5" to="409634167#3"/>
    <trip id="targeted_157" type="car" depart="785.0" from="1274037341#1" to="409634167#3"/>
    <trip id="targeted_158" type="car" depart="790.0" from="1274037341#1" to="179750980#0"/>
    <trip id="targeted_159" type="car" depart="795.0" from="179750964#5" to="179750980#0"/>
    <trip id="targeted_160" type="car" depart="800.0" from="179750964#5" to="409634167#3"/>
    <trip id="targeted_161" type="car" depart="805.0" from="179750964#5" to="409634167#3"/>
    <trip id="targeted_162" type="car" depart="810.0" from="179750964#5" to="858712304#0"/>
    <trip id="targeted_163" type="car" depart="815.0" from="409634167#1" to="858712304#0"/>
    <trip id="targeted_164" type="car" depart="820.0" from="409634167#1" to="858712304#0"/>
    <trip id="targeted_165" type="car" depart="825.0" from="179750964#5" to="179750980#0"/>
    <trip id="targeted_166" type="car" depart="830.0" from="1274037341#1" to="409634167#3"/>
    <trip id="targeted_167" type="car" depart="835.0" from="1274037341#1" to="179750980#0"/>
    <trip id="targeted_168" type="car" depart="840.0" from="409634167#1" to="858712304#0"/>
    <trip id="targeted_169" type="car" depart="845.0" from="409634167#1" to="179750980#0"/>
    <trip id="targeted_170" type="car" depart="850.0" from="409634167#1" to="409634167#3"/>
    <trip id="targeted_171" type="car" depart="855.0" from="1274037341#1" to="179750980#0"/>
    <trip id="targeted_172" type="car" depart="860.0" from="409634167#1" to="409634167#3"/>
    <trip id="targeted_173" type="car" depart="865.0" from="409634167#1" to="858712304#0"/>
    <trip id="targeted_174" type="car" depart="870.0" from="1274037341#1" to="179750980#0"/>
    <trip id="targeted_175" type="car" depart="875.0" from="409634167#1" to="179750980#0"/>
    <trip id="targeted_176" type="car" depart="880.0" from="1274037341#1" to="179750980#0"/>
    <trip id="targeted_177" type="car" depart="885.0" from="409634167#1" to="179750980#0"/>
    <trip id="targeted_178" type="car" depart="890.0" from="409634167#1" to="179750980#0"/>
    <trip id="targeted_179" type="car" depart="895.0" from="179750964#5" to="179750980#0"/>
    <trip id="targeted_180" type="car" depart="900.0" from="409634167#1" to="179750980#0"/>
    <trip id="targeted_181" type="car" depart="905.0" from="409634167#1" to="858712304#0"/>
    <trip id="targeted_182" type="car" depart="910.0" from="1274037341#1" to="858712304#0"/>
    <trip id="targeted_183" type="car" depart="915.0" from="1274037341#1" to="409634167#3"/>
    <trip id="targeted_184" type="car" depart="920.0" from="409634167#1" to="858712304#0"/>
    <trip id="targeted_185" type="car" depart="925.0" from="409634167#1" to="858712304#0"/>
    <trip id="targeted_186" type="car" depart="930.0" from="179750964#5" to="409634167#3"/>
    <trip id="targeted_187" type="car" depart="935.0" from="1274037341#1" to="858712304#0"/>
    <trip id="targeted_188" type="car" depart="940.0" from="409634167#1" to="409634167#3"/>
    <trip id="targeted_189" type="car" depart="945.0" from="1274037341#1" to="409634167#3"/>
    <trip id="targeted_190" type="car" depart="950.0" from="179750964#5" to="179750980#0"/>
    <trip id="targeted_191" type="car" depart="955.0" from="409634167#1" to="858712304#0"/>
    <trip id="targeted_192" type="car" depart="960.0" from="179750964#5" to="409634167#3"/>
    <trip id="targeted_193" type="car" depart="965.0" from="179750964#5" to="179750980#0"/>
    <trip id="targeted_194" type="car" depart="970.0" from="1274037341#1" to="409634167#3"/>
    <trip id="targeted_195" type="car" depart="975.0" from="409634167#1" to="858712304#0"/>
    <trip id="targeted_196" type="car" depart="980.0" from="1274037341#1" to="179750980#0"/>
    <trip id="targeted_197" type="car" depart="985.0" from="409634167#1" to="179750980#0"/>
    <trip id="targeted_198" type="car" depart="990.0" from="409634167#1" to="409634167#3"/>
    <trip id="targeted_199" type="car" depart="995.0" from="1274037341#1" to="409634167#3"/>
    <trip id="targeted_200" type="car" depart="1000.0" from="1274037341#1" to="179750980#0"/>
    <trip id="targeted_201" type="car" depart="1005.0" from="179750964#5" to="409634167#3"/>
    <trip id="targeted_202" type="car" depart="1010.0" from="1274037341#1" to="409634167#3"/>
    <trip id="targeted_203" type="car" depart="1015.0" from="409634167#1" to="858712304#0"/>
    <trip id="targeted_204" type="car" depart="1020.0" from="179750964#5" to="858712304#0"/>
    <trip id="targeted_205" type="car" depart="1025.0" from="409634167#1" to="858712304#0"/>
    <trip id="targeted_206" type="car" depart="1030.0" from="1274037341#1" to="858712304#0"/>
    <trip id="targeted_207" type="car" depart="1035.0" from="409634167#1" to="409634167#3"/>
    <trip id="targeted_208" type="car" depart="1040.0" from="409634167#1" to="179750980#0"/>
    <trip id="targeted_209" type="car" depart="1045.0" from="1274037341#1" to="409634167#3"/>
    <trip id="targeted_210" type="car" depart="1050.0" from="1274037341#1" to="179750980#0"/>
    <trip id="targeted_211" type="car" depart="1055.0" from="409634167#1" to="858712304#0"/>
    <trip id="targeted_212" type="car" depart="1060.0" from="1274037341#1" to="409634167#3"/>
    <trip id="targeted_213" type="car" depart="1065.0" from="179750964#5" to="858712304#0"/>
    <trip id="targeted_214" type="car" depart="1070.0" from="1274037341#1" to="858712304#0"/>
    <trip id="targeted_215" type="car" depart="1075.0" from="179750964#5" to="179750980#0"/>
    <trip id="targeted_216" type="car" depart="1080.0" from="409634167#1" to="858712304#0"/>
    <trip id="targeted_217" type="car" depart="1085.0" from="179750964#5" to="858712304#0"/>
    <trip id="targeted_218" type="car" depart="1090.0" from="179750964#5" to="409634167#3"/>
    <trip id="targeted_219" type="car" depart="1095.0" from="1274037341#1" to="179750980#0"/>
    <trip id="targeted_220" type="car" depart="1100.0" from="409634167#1" to="409634167#3"/>
    <trip id="targeted_221" type="car" depart="1105.0" from="179750964#5" to="179750980#0"/>
    <trip id="targeted_222" type="car" depart="1110.0" from="1274037341#1" to="409634167#3"/>
    <trip id="targeted_223" type="car" depart="1115.0" from="1274037341#1" to="858712304#0"/>
    <trip id="targeted_224" type="car" depart="1120.0" from="179750964#5" to="179750980#0"/>
    <trip id="targeted_225" type="car" depart="1125.0" from="409634167#1" to="409634167#3"/>
    <trip id="targeted_226" type="car" depart="1130.0" from="409634167#1" to="858712304#0"/>
    <trip id="targeted_227" type="car" depart="1135.0" from="179750964#5" to="858712304#0"/>
    <trip id="targeted_228" type="car" depart="1140.0" from="1274037341#1" to="179750980#0"/>
    <trip id="targeted_229" type="car" depart="1145.0" from="1274037341#1" to="858712304#0"/>
    <trip id="targeted_230" type="car" depart="1150.0" from="1274037341#1" to="858712304#0"/>
    <trip id="targeted_231" type="car" depart="1155.0" from="1274037341#1" to="409634167#3"/>
    <trip id="targeted_232" type="car" depart="1160.0" from="409634167#1" to="858712304#0"/>
    <trip id="targeted_233" type="car" depart="1165.0" from="1274037341#1" to="409634167#3"/>
    <trip id="targeted_234" type="car" depart="1170.0" from="1274037341#1" to="179750980#0"/>
    <trip id="targeted_235" type="car" depart="1175.0" from="179750964#5" to="409634167#3"/>
    <trip id="targeted_236" type="car" depart="1180.0" from="1274037341#1" to="409634167#3"/>
    <trip id="targeted_237" type="car" depart="1185.0" from="1274037341#1" to="858712304#0"/>
    <trip id="targeted_238" type="car" depart="1190.0" from="1274037341#1" to="858712304#0"/>
    <trip id="targeted_239" type="car" depart="1195.0" from="1274037341#1" to="409634167#3"/>
    <trip id="targeted_240" type="car" depart="1200.0" from="409634167#1" to="409634167#3"/>
    <trip id="targeted_241" type="car" depart="1205.0" from="409634167#1" to="858712304#0"/>
    <trip id="targeted_242" type="car" depart="1210.0" from="1274037341#1" to="179750980#0"/>
    <trip id="targeted_243" type="car" depart="1215.0" from="1274037341#1" to="179750980#0"/>
    <trip id="targeted_244" type="car" depart="1220.0" from="179750964#5" to="179750980#0"/>
    <trip id="targeted_245" type="car" depart="1225.0" from="1274037341#1" to="858712304#0"/>
    <trip id="targeted_246" type="car" depart="1230.0" from="179750964#5" to="409634167#3"/>
    <trip id="targeted_247" type="car" depart="1235.0" from="409634167#1" to="858712304#0"/>
    <trip id="targeted_248" type="car" depart="1240.0" from="1274037341#1" to="409634167#3"/>
    <trip id="targeted_249" type="car" depart="1245.0" from="1274037341#1" to="858712304#0"/>
    <trip id="targeted_250" type="car" depart="1250.0" from="1274037341#1" to="409634167#3"/>
    <trip id="targeted_251" type="car" depart="1255.0" from="1274037341#1" to="409634167#3"/>
    <trip id="targeted_252" type="car" depart="1260.0" from="1274037341#1" to="179750980#0"/>
    <trip id="targeted_253" type="car" depart="1265.0" from="179750964#5" to="409634167#3"/>
    <trip id="targeted_254" type="car" depart="1270.0" from="179750964#5" to="179750980#0"/>
    <trip id="targeted_255" type="car" depart="1275.0" from="1274037341#1" to="179750980#0"/>
    <trip id="targeted_256" type="car" depart="1280.0" from="409634167#1" to="179750980#0"/>
    <trip id="targeted_257" type="car" depart="1285.0" from="179750964#5" to="409634167#3"/>
    <trip id="targeted_258" type="car" depart="1290.0" from="179750964#5" to="179750980#0"/>
    <trip id="targeted_259" type="car" depart="1295.0" from="179750964#5" to="409634167#3"/>
    <trip id="targeted_260" type="car" depart="1300.0" from="409634167#1" to="858712304#0"/>
    <trip id="targeted_261" type="car" depart="1305.0" from="179750964#5" to="858712304#0"/>
    <trip id="targeted_262" type="car" depart="1310.0" from="409634167#1" to="409634167#3"/>
    <trip id="targeted_263" type="car" depart="1315.0" from="1274037341#1" to="179750980#0"/>
    <trip id="targeted_264" type="car" depart="1320.0" from="179750964#5" to="179750980#0"/>
    <trip id="targeted_265" type="car" depart="1325.0" from="409634167#1" to="409634167#3"/>
    <trip id="targeted_266" type="car" depart="1330.0" from="1274037341#1" to="179750980#0"/>
    <trip id="targeted_267" type="car" depart="1335.0" from="409634167#1" to="409634167#3"/>
    <trip id="targeted_268" type="car" depart="1340.0" from="179750964#5" to="858712304#0"/>
    <trip id="targeted_269" type="car" depart="1345.0" from="179750964#5" to="409634167#3"/>
    <trip id="targeted_270" type="car" depart="1350.0" from="409634167#1" to="858712304#0"/>
    <trip id="targeted_271" type="car" depart="1355.0" from="1274037341#1" to="409634167#3"/>
    <trip id="targeted_272" type="car" depart="1360.0" from="409634167#1" to="179750980#0"/>
    <trip id="targeted_273" type="car" depart="1365.0" from="179750964#5" to="179750980#0"/>
    <trip id="targeted_274" type="car" depart="1370.0" from="409634167#1" to="409634167#3"/>
    <trip id="targeted_275" type="car" depart="1375.0" from="1274037341#1" to="858712304#0"/>
    <trip id="targeted_276" type="car" depart="1380.0" from="409634167#1" to="858712304#0"/>
    <trip id="targeted_277" type="car" depart="1385.0" from="409634167#1" to="858712304#0"/>
    <trip id="targeted_278" type="car" depart="1390.0" from="409634167#1" to="858712304#0"/>
    <trip id="targeted_279" type="car" depart="1395.0" from="1274037341#1" to="409634167#3"/>
    <trip id="targeted_280" type="car" depart="1400.0" from="179750964#5" to="179750980#0"/>
    <trip id="targeted_281" type="car" depart="1405.0" from="409634167#1" to="409634167#3"/>
    <trip id="targeted_282" type="car" depart="1410.0" from="409634167#1" to="409634167#3"/>
    <trip id="targeted_283" type="car" depart="1415.0" from="409634167#1" to="179750980#0"/>
    <trip id="targeted_284" type="car" depart="1420.0" from="409634167#1" to="409634167#3"/>
    <trip id="targeted_285" type="car" depart="1425.0" from="409634167#1" to="409634167#3"/>
    <trip id="targeted_286" type="car" depart="1430.0" from="409634167#1" to="409634167#3"/>
    <trip id="targeted_287" type="car" depart="1435.0" from="179750964#5" to="409634167#3"/>
    <trip id="targeted_288" type="car" depart="1440.0" from="409634167#1" to="409634167#3"/>
    <trip id="targeted_289" type="car" depart="1445.0" from="409634167#1" to="179750980#0"/>
    <trip id="targeted_290" type="car" depart="1450.0" from="1274037341#1" to="409634167#3"/>
    <trip id="targeted_291" type="car" depart="1455.0" from="409634167#1" to="409634167#3"/>
    <trip id="targeted_292" type="car" depart="1460.0" from="409634167#1" to="858712304#0"/>
    <trip id="targeted_293" type="car" depart="1465.0" from="1274037341#1" to="858712304#0"/>
    <trip id="targeted_294" type="car" depart="1470.0" from="409634167#1" to="409634167#3"/>
    <trip id="targeted_295" type="car" depart="1475.0" from="179750964#5" to="858712304#0"/>
    <trip id="targeted_296" type="car" depart="1480.0" from="1274037341#1" to="409634167#3"/>
    <trip id="targeted_297" type="car" depart="1485.0" from="179750964#5" to="179750980#0"/>
    <trip id="targeted_298" type="car" depart="1490.0" from="179750964#5" to="858712304#0"/>
    <trip id="targeted_299" type="car" depart="1495.0" from="409634167#1" to="858712304#0"/>
    <trip id="targeted_300" type="car" depart="1500.0" from="179750964#5" to="409634167#3"/>
    <trip id="targeted_301" type="car" depart="1505.0" from="179750964#5" to="409634167#3"/>
    <trip id="targeted_302" type="car" depart="1510.0" from="409634167#1" to="179750980#0"/>
    <trip id="targeted_303" type="car" depart="1515.0" from="409634167#1" to="409634167#3"/>
    <trip id="targeted_304" type="car" depart="1520.0" from="409634167#1" to="179750980#0"/>
    <trip id="targeted_305" type="car" depart="1525.0" from="409634167#1" to="179750980#0"/>
    <trip id="targeted_306" type="car" depart="1530.0" from="179750964#5" to="858712304#0"/>
    <trip id="targeted_307" type="car" depart="1535.0" from="409634167#1" to="858712304#0"/>
    <trip id="targeted_308" type="car" depart="1540.0" from="409634167#1" to="409634167#3"/>
    <trip id="targeted_309" type="car" depart="1545.0" from="1274037341#1" to="179750980#0"/>
    <trip id="targeted_310" type="car" depart="1550.0" from="409634167#1" to="409634167#3"/>
    <trip id="targeted_311" type="car" depart="1555.0" from="1274037341#1" to="179750980#0"/>
    <trip id="targeted_312" type="car" depart="1560.0" from="1274037341#1" to="179750980#0"/>
    <trip id="targeted_313" type="car" depart="1565.0" from="1274037341#1" to="179750980#0"/>
    <trip id="targeted_314" type="car" depart="1570.0" from="179750964#5" to="858712304#0"/>
    <trip id="targeted_315" type="car" depart="1575.0" from="1274037341#1" to="409634167#3"/>
    <trip id="targeted_316" type="car" depart="1580.0" from="179750964#5" to="858712304#0"/>
    <trip id="targeted_317" type="car" depart="1585.0" from="409634167#1" to="179750980#0"/>
    <trip id="targeted_318" type="car" depart="1590.0" from="409634167#1" to="858712304#0"/>
    <trip id="targeted_319" type="car" depart="1595.0" from="179750964#5" to="409634167#3"/>